external_data/tamu_texas_td/distribution_sample/p1uhs0_1247--p1udt1566/Lines.dss
New Line.l(r:p1udt18lv-p1ulv3170) Units=km Length=0.0707225 bus1=p1udt18lv.1.2 bus2=p1ulv3170.1.2 switch=n enabled=y phases=2 Linecode=1P_OH_AL_4/0_Zuzara_2

New Line.l(r:p1udt18lv-p1ulv12458) Units=km Length=0.0239529 bus1=p1udt18lv.1.2 bus2=p1ulv12458.1.2 switch=n enabled=y phases=2 Linecode=1P_OH_AL_2/0_Rucina_2

New Line.l(r:p1udm45-p1ulv20) Units=km Length=0.0327347 bus1=p1udm45.1.2 bus2=p1ulv20.1.2 switch=n enabled=y phases=2 Linecode=1P_OH_AL_4/0_Zuzara_2

New Line.l(r:p1udm47-p1ulv6092) Units=km Length=0.0204597 bus1=p1udm47.1.2 bus2=p1ulv6092.1.2 switch=n enabled=y phases=2 Linecode=1P_OH_AL_2/0_Rucina_2

New Line.l(r:p1udm45-p1udm47) Units=km Length=0.0193215 bus1=p1udm45.1.2 bus2=p1udm47.1.2 switch=n enabled=y phases=2 Linecode=1P_OH_AL_2/0_Rucina_2

New Line.l(r:p1udm45-p1udt18lv) Units=km Length=0.0193115 bus1=p1udt18lv.1.2 bus2=p1udm45.1.2 switch=n enabled=y phases=2 Linecode=1P_OH_AL_2/0_Rucina_2

New Line.l(r:p1udm48-p1ulv11646) Units=km Length=0.0411014 bus1=p1udm48.1.2 bus2=p1ulv11646.1.2 switch=n enabled=y phases=2 Linecode=1P_OH_AL_4/0_Zuzara_2

New Line.l(r:p1udm48-p1udt18lv) Units=km Length=0.027829 bus1=p1udt18lv.1.2 bus2=p1udm48.1.2 switch=n enabled=y phases=2 Linecode=1P_OH_AL_4/0_Zuzara_2

New Line.l(r:p1udm50-p1ulv21) Units=km Length=0.017993 bus1=p1udm50.1.2 bus2=p1ulv21.1.2 switch=n enabled=y phases=2 Linecode=1P_UG_AL_1/0_Brenau_2

New Line.l(r:p1udm50-p1ulv5305) Units=km Length=0.0125675 bus1=p1udm50.1.2 bus2=p1ulv5305.1.2 switch=n enabled=y phases=2 Linecode=1P_UG_AL_1/0_Brenau_2

New Line.l(r:p1udm52-p1ulv7734) Units=km Length=0.0106303 bus1=p1udm52.1.2 bus2=p1ulv7734.1.2 switch=n enabled=y phases=2 Linecode=1P_UG_AL_1/0_Brenau_2

New Line.l(r:p1udm50-p1udm52) Units=km Length=0.0291792 bus1=p1udm50.1.2 bus2=p1udm52.1.2 switch=n enabled=y phases=2 Linecode=1P_UG_AL_1/0_Brenau_2

New Line.l(r:p1udm50-p1udt19lv) Units=km Length=0.009722 bus1=p1udt19lv.1.2 bus2=p1udm50.1.2 switch=n enabled=y phases=2 Linecode=1P_UG_AL_4/0_Sweetbriar_2

New Line.l(r:p1udm53-p1ulv7851) Units=km Length=0.006372010000000001 bus1=p1udm53.1.2 bus2=p1ulv7851.1.2 switch=n enabled=y phases=2 Linecode=1P_UG_AL_1/0_Brenau_2

New Line.l(r:p1udm53-p1udt19lv) Units=km Length=0.044435800000000004 bus1=p1udt19lv.1.2 bus2=p1udm53.1.2 switch=n enabled=y phases=2 Linecode=1P_UG_AL_1/0_Brenau_2

New Line.l(r:p1udt20lv-p1ulv8346) Units=km Length=0.0174937 bus1=p1udt20lv.1.2 bus2=p1ulv8346.1.2 switch=n enabled=y phases=2 Linecode=1P_UG_AL_1/0_Brenau_2

New Line.l(r:p1udm54-p1ulv22) Units=km Length=0.00783042 bus1=p1udm54.1.2 bus2=p1ulv22.1.2 switch=n enabled=y phases=2 Linecode=1P_UG_AL_1/0_Brenau_2

New Line.l(r:p1udm54-p1ulv270) Units=km Length=0.0168156 bus1=p1udm54.1.2 bus2=p1ulv270.1.2 switch=n enabled=y phases=2 Linecode=1P_UG_AL_1/0_Brenau_2

New Line.l(r:p1udm56-p1ulv1648) Units=km Length=0.00732503 bus1=p1udm56.1.2 bus2=p1ulv1648.1.2 switch=n enabled=y phases=2 Linecode=1P_UG_AL_1/0_Brenau_2

New Line.l(r:p1udm56-p1ulv7012) Units=km Length=0.0186302 bus1=p1udm56.1.2 bus2=p1ulv7012.1.2 switch=n enabled=y phases=2 Linecode=1P_UG_AL_1/0_Brenau_2

New Line.l(r:p1udm61-p1ulv8619) Units=km Length=0.00807643 bus1=p1udm61.1.2 bus2=p1ulv8619.1.2 switch=n enabled=y phases=2 Linecode=1P_UG_AL_1/0_Brenau_2

New Line.l(r:p1udm56-p1udm61) Units=km Length=0.00845005 bus1=p1udm56.1.2 bus2=p1udm61.1.2 switch=n enabled=y phases=2 Linecode=1P_UG_AL_1/0_Brenau_2

New Line.l(r:p1udm54-p1udm56) Units=km Length=0.0169201 bus1=p1udm54.1.2 bus2=p1udm56.1.2 switch=n enabled=y phases=2 Linecode=1P_UG_AL_4/0_Sweetbriar_2

New Line.l(r:p1udm54-p1udt20lv) Units=km Length=0.00845005 bus1=p1udt20lv.1.2 bus2=p1udm54.1.2 switch=n enabled=y phases=2 Linecode=1P_UG_AL_4/0_Sweetbriar_2

New Line.l(r:p1udm59-p1ulv7987) Units=km Length=0.0115171 bus1=p1udm59.1.2 bus2=p1ulv7987.1.2 switch=n enabled=y phases=2 Linecode=1P_UG_AL_1/0_Brenau_2

New Line.l(r:p1udm59-p1ulv10834) Units=km Length=0.0184233 bus1=p1udm59.1.2 bus2=p1ulv10834.1.2 switch=n enabled=y phases=2 Linecode=1P_UG_AL_1/0_Brenau_2

New Line.l(r:p1udm57-p1ulv5981) Units=km Length=0.0143615 bus1=p1udm57.1.2 bus2=p1ulv5981.1.2 switch=n enabled=y phases=2 Linecode=1P_UG_AL_1/0_Brenau_2

New Line.l(r:p1udm57-p1ulv10336) Units=km Length=0.016928 bus1=p1udm57.1.2 bus2=p1ulv10336.1.2 switch=n enabled=y phases=2 Linecode=1P_UG_AL_1/0_Brenau_2

New Line.l(r:p1udm64-p1ulv11298) Units=km Length=0.0241109 bus1=p1udm64.1.2 bus2=p1ulv11298.1.2 switch=n enabled=y phases=2 Linecode=1P_UG_AL_1/0_Brenau_2

New Line.l(r:p1udm57-p1udm64) Units=km Length=0.0374748 bus1=p1udm57.1.2 bus2=p1udm64.1.2 switch=n enabled=y phases=2 Linecode=1P_UG_AL_1/0_Brenau_2

New Line.l(r:p1udm57-p1udm59) Units=km Length=0.018732200000000004 bus1=p1udm59.1.2 bus2=p1udm57.1.2 switch=n enabled=y phases=2 Linecode=1P_UG_AL_1/0_Brenau_2

New Line.l(r:p1udm59-p1udt20lv) Units=km Length=0.00846005 bus1=p1udt20lv.1.2 bus2=p1udm59.1.2 switch=n enabled=y phases=2 Linecode=1P_UG_AL_4/0_Sweetbriar_2

New Line.l(r:p1udm65-p1ulv23) Units=km Length=0.0385919 bus1=p1udm65.1.2 bus2=p1ulv23.1.2 switch=n enabled=y phases=2 Linecode=1P_UG_AL_1/0_Brenau_2

New Line.l(r:p1udm65-p1ulv10086) Units=km Length=0.0105332 bus1=p1udm65.1.2 bus2=p1ulv10086.1.2 switch=n enabled=y phases=2 Linecode=1P_UG_AL_1/0_Brenau_2

New Line.l(r:p1udm65-p1udt21lv) Units=km Length=0.0237807 bus1=p1udt21lv.1.2 bus2=p1udm65.1.2 switch=n enabled=y phases=2 Linecode=1P_UG_AL_2/0_Converse_2

New Line.l(r:p1udm69-p1ulv12357) Units=km Length=0.0196385 bus1=p1udm69.1.2 bus2=p1ulv12357.1.2 switch=n enabled=y phases=2 Linecode=1P_UG_AL_1/0_Brenau_2

New Line.l(r:p1udm66-p1ulv8127) Units=km Length=0.0165981 bus1=p1udm66.1.2 bus2=p1ulv8127.1.2 switch=n enabled=y phases=2 Linecode=1P_UG_AL_1/0_Brenau_2

New Line.l(r:p1udm66-p1ulv11413) Units=km Length=0.00980955 bus1=p1udm66.1.2 bus2=p1ulv11413.1.2 switch=n enabled=y phases=2 Linecode=1P_UG_AL_1/0_Brenau_2

New Line.l(r:p1udm66-p1udm69) Units=km Length=0.00877112 bus1=p1udm69.1.2 bus2=p1udm66.1.2 switch=n enabled=y phases=2 Linecode=1P_UG_AL_2/0_Converse_2

New Line.l(r:p1udm69-p1udt21lv) Units=km Length=0.00876112 bus1=p1udt21lv.1.2 bus2=p1udm69.1.2 switch=n enabled=y phases=2 Linecode=1P_UG_AL_4/0_Sweetbriar_2

New Line.l(r:p1udt22lv-p1ulv24) Units=km Length=0.0155593 bus1=p1udt22lv.1.2 bus2=p1ulv24.1.2 switch=n enabled=y phases=2 Linecode=1P_OH_AL_2/0_Rucina_2

New Line.l(r:p1udm71-p1ulv273) Units=km Length=0.0176364 bus1=p1udm71.1.2 bus2=p1ulv273.1.2 switch=n enabled=y phases=2 Linecode=1P_OH_AL_2/0_Rucina_2

New Line.l(r:p1udm71-p1udt22lv) Units=km Length=0.0802624 bus1=p1udt22lv.1.2 bus2=p1udm71.1.2 switch=n enabled=y phases=2 Linecode=1P_OH_AL_4/0_Zuzara_2

New Line.l(r:p1udm72-p1ulv1922) Units=km Length=0.0146727 bus1=p1udm72.1.2 bus2=p1ulv1922.1.2 switch=n enabled=y phases=2 Linecode=1P_OH_AL_2/0_Rucina_2

New Line.l(r:p1udm72-p1udt22lv) Units=km Length=0.0195657 bus1=p1udt22lv.1.2 bus2=p1udm72.1.2 switch=n enabled=y phases=2 Linecode=1P_OH_AL_2/0_Rucina_2

New Line.l(r:p1udm73-p1ulv25) Units=km Length=0.0151349 bus1=p1udm73.1.2 bus2=p1ulv25.1.2 switch=n enabled=y phases=2 Linecode=1P_OH_AL_2/0_Rucina_2

New Line.l(r:p1udm73-p1udt23lv) Units=km Length=0.051871400000000005 bus1=p1udt23lv.1.2 bus2=p1udm73.1.2 switch=n enabled=y phases=2 Linecode=1P_OH_AL_4/0_Zuzara_2

New Line.l(r:p1udm74-p1ulv8350) Units=km Length=0.012249400000000002 bus1=p1udm74.1.2 bus2=p1ulv8350.1.2 switch=n enabled=y phases=2 Linecode=1P_OH_AL_2/0_Rucina_2

New Line.l(r:p1udm74-p1udt23lv) Units=km Length=0.0367834 bus1=p1udt23lv.1.2 bus2=p1udm74.1.2 switch=n enabled=y phases=2 Linecode=1P_OH_AL_4/0_Zuzara_2

New Line.l(r:p1udm77-p1ulv2922) Units=km Length=0.013120800000000002 bus1=p1udm77.1.2 bus2=p1ulv2922.1.2 switch=n enabled=y phases=2 Linecode=1P_UG_AL_1/0_Brenau_2

New Line.l(r:p1udm75-p1ulv26) Units=km Length=0.0172261 bus1=p1udm75.1.2 bus2=p1ulv26.1.2 switch=n enabled=y phases=2 Linecode=1P_UG_AL_2/0_Converse_2

New Line.l(r:p1udm75-p1ulv2920) Units=km Length=0.012602 bus1=p1udm75.1.2 bus2=p1ulv2920.1.2 switch=n enabled=y phases=2 Linecode=1P_UG_AL_1/0_Brenau_2

New Line.l(r:p1udm75-p1udm77) Units=km Length=0.00994515 bus1=p1udm77.1.2 bus2=p1udm75.1.2 switch=n enabled=y phases=2 Linecode=1P_UG_AL_4/0_Sweetbriar_2

New Line.l(r:p1udm77-p1udt24lv) Units=km Length=0.00995514 bus1=p1udt24lv.1.2 bus2=p1udm77.1.2 switch=n enabled=y phases=2 Linecode=1P_UG_AL_4/0_Sweetbriar_2

New Line.l(r:p1udm79-p1ulv8747) Units=km Length=0.0128659 bus1=p1udm79.1.2 bus2=p1ulv8747.1.2 switch=n enabled=y phases=2 Linecode=1P_UG_AL_1/0_Brenau_2

New Line.l(r:p1udm79-p1ulv9985) Units=km Length=0.0174224 bus1=p1udm79.1.2 bus2=p1ulv9985.1.2 switch=n enabled=y phases=2 Linecode=1P_UG_AL_1/0_Brenau_2

New Line.l(r:p1udm78-p1ulv6358) Units=km Length=0.0172892 bus1=p1udm78.1.2 bus2=p1ulv6358.1.2 switch=n enabled=y phases=2 Linecode=1P_UG_AL_1/0_Brenau_2

New Line.l(r:p1udm78-p1udm79) Units=km Length=0.00994515 bus1=p1udm79.1.2 bus2=p1udm78.1.2 switch=n enabled=y phases=2 Linecode=1P_UG_AL_1/0_Brenau_2

New Line.l(r:p1udm79-p1udt24lv) Units=km Length=0.00994548 bus1=p1udt24lv.1.2 bus2=p1udm79.1.2 switch=n enabled=y phases=2 Linecode=1P_UG_AL_4/0_Sweetbriar_2

New Line.l(r:p1udt25lv-p1ulv27) Units=km Length=0.01681 bus1=p1udt25lv.1.2 bus2=p1ulv27.1.2 switch=n enabled=y phases=2 Linecode=1P_UG_AL_1/0_Brenau_2

New Line.l(r:p1udt25lv-p1ulv391) Units=km Length=0.020014800000000003 bus1=p1udt25lv.1.2 bus2=p1ulv391.1.2 switch=n enabled=y phases=2 Linecode=1P_UG_AL_1/0_Brenau_2

New Line.l(r:p1udt25lv-p1ulv1430) Units=km Length=0.0202722 bus1=p1udt25lv.1.2 bus2=p1ulv1430.1.2 switch=n enabled=y phases=2 Linecode=1P_UG_AL_1/0_Brenau_2

New Line.l(r:p1udt25lv-p1ulv10720) Units=km Length=0.0227669 bus1=p1udt25lv.1.2 bus2=p1ulv10720.1.2 switch=n enabled=y phases=2 Linecode=1P_UG_AL_1/0_Brenau_2

New Line.l(r:p1udt26lv-p1ulv28) Units=km Length=0.0122837 bus1=p1udt26lv.1.2 bus2=p1ulv28.1.2 switch=n enabled=y phases=2 Linecode=1P_UG_AL_1/0_Brenau_2

New Line.l(r:p1udm86-p1ulv8490) Units=km Length=0.017849 bus1=p1udm86.1.2 bus2=p1ulv8490.1.2 switch=n enabled=y phases=2 Linecode=1P_UG_AL_1/0_Brenau_2

New Line.l(r:p1udm86-p1ulv12016) Units=km Length=0.0134686 bus1=p1udm86.1.2 bus2=p1ulv12016.1.2 switch=n enabled=y phases=2 Linecode=1P_UG_AL_1/0_Brenau_2

New Line.l(r:p1udm87-p1ulv8748) Units=km Length=0.012929500000000002 bus1=p1udm87.1.2 bus2=p1ulv8748.1.2 switch=n enabled=y phases=2 Linecode=1P_UG_AL_2/0_Converse_2

New Line.l(r:p1udm86-p1udm87) Units=km Length=0.0298454 bus1=p1udm86.1.2 bus2=p1udm87.1.2 switch=n enabled=y phases=2 Linecode=1P_UG_AL_2/0_Converse_2

New Line.l(r:p1udm86-p1udt26lv) Units=km Length=0.00994515 bus1=p1udt26lv.1.2 bus2=p1udm86.1.2 switch=n enabled=y phases=2 Linecode=1P_UG_AL_4/0_Sweetbriar_2

New Line.l(r:p1udm90-p1ulv11901) Units=km Length=0.0177527 bus1=p1udm90.1.2 bus2=p1ulv11901.1.2 switch=n enabled=y phases=2 Linecode=1P_UG_AL_1/0_Brenau_2

New Line.l(r:p1udm88-p1ulv10838) Units=km Length=0.0174741 bus1=p1udm88.1.2 bus2=p1ulv10838.1.2 switch=n enabled=y phases=2 Linecode=1P_UG_AL_1/0_Brenau_2

New Line.l(r:p1udm88-p1ulv11545) Units=km Length=0.0133002 bus1=p1udm88.1.2 bus2=p1ulv11545.1.2 switch=n enabled=y phases=2 Linecode=1P_UG_AL_1/0_Brenau_2

New Line.l(r:p1udm88-p1udm90) Units=km Length=0.00994548 bus1=p1udm90.1.2 bus2=p1udm88.1.2 switch=n enabled=y phases=2 Linecode=1P_UG_AL_2/0_Converse_2

New Line.l(r:p1udm90-p1udt26lv) Units=km Length=0.00994515 bus1=p1udt26lv.1.2 bus2=p1udm90.1.2 switch=n enabled=y phases=2 Linecode=1P_UG_AL_4/0_Sweetbriar_2

New Line.l(r:p1udt27lv-p1ulv5754) Units=km Length=0.0180265 bus1=p1udt27lv.1.2 bus2=p1ulv5754.1.2 switch=n enabled=y phases=2 Linecode=1P_UG_AL_1/0_Brenau_2

New Line.l(r:p1udm92-p1ulv29) Units=km Length=0.0131106 bus1=p1udm92.1.2 bus2=p1ulv29.1.2 switch=n enabled=y phases=2 Linecode=1P_UG_AL_1/0_Brenau_2

New Line.l(r:p1udm92-p1udt27lv) Units=km Length=0.00989041 bus1=p1udt27lv.1.2 bus2=p1udm92.1.2 switch=n enabled=y phases=2 Linecode=1P_UG_AL_1/0_Brenau_2

New Line.l(r:p1udm94-p1ulv6235) Units=km Length=0.0144462 bus1=p1udm94.1.2 bus2=p1ulv6235.1.2 switch=n enabled=y phases=2 Linecode=1P_UG_AL_1/0_Brenau_2

New Line.l(r:p1udm94-p1ulv12124) Units=km Length=0.015127000000000002 bus1=p1udm94.1.2 bus2=p1ulv12124.1.2 switch=n enabled=y phases=2 Linecode=1P_UG_AL_1/0_Brenau_2

New Line.l(r:p1udm94-p1udt27lv) Units=km Length=0.00988032 bus1=p1udt27lv.1.2 bus2=p1udm94.1.2 switch=n enabled=y phases=2 Linecode=1P_UG_AL_2/0_Converse_2

New Line.l(r:p1udt28lv-p1ulv30) Units=km Length=0.015483100000000001 bus1=p1udt28lv.1.2 bus2=p1ulv30.1.2 switch=n enabled=y phases=2 Linecode=1P_UG_AL_2/0_Converse_2

New Line.l(r:p1udt28lv-p1ulv6098) Units=km Length=0.0159805 bus1=p1udt28lv.1.2 bus2=p1ulv6098.1.2 switch=n enabled=y phases=2 Linecode=1P_UG_AL_1/0_Brenau_2

New Line.l(r:p1udm97-p1ulv835) Units=km Length=0.0145919 bus1=p1udm97.1.2 bus2=p1ulv835.1.2 switch=n enabled=y phases=2 Linecode=1P_UG_AL_1/0_Brenau_2

New Line.l(r:p1udm97-p1ulv5425) Units=km Length=0.0159104 bus1=p1udm97.1.2 bus2=p1ulv5425.1.2 switch=n enabled=y phases=2 Linecode=1P_UG_AL_2/0_Converse_2

New Line.l(r:p1udm97-p1udt28lv) Units=km Length=0.019445400000000005 bus1=p1udt28lv.1.2 bus2=p1udm97.1.2 switch=n enabled=y phases=2 Linecode=1P_UG_AL_4/0_Sweetbriar_2

New Line.l(r:p1udm98-p1ulv4979) Units=km Length=0.0114832 bus1=p1udm98.1.2 bus2=p1ulv4979.1.2 switch=n enabled=y phases=2 Linecode=1P_UG_AL_1/0_Brenau_2

New Line.l(r:p1udm101-p1ulv11903) Units=km Length=0.00940813 bus1=p1udm101.1.2 bus2=p1ulv11903.1.2 switch=n enabled=y phases=2 Linecode=1P_UG_AL_1/0_Brenau_2

New Line.l(r:p1udm101-p1udm98) Units=km Length=0.0326227 bus1=p1udm98.1.2 bus2=p1udm101.1.2 switch=n enabled=y phases=2 Linecode=1P_UG_AL_1/0_Brenau_2

New Line.l(r:p1udm98-p1udt28lv) Units=km Length=0.05405000000000001 bus1=p1udt28lv.1.2 bus2=p1udm98.1.2 switch=n enabled=y phases=2 Linecode=1P_UG_AL_2/0_Converse_2

New Line.l(r:p1udm102-p1ulv31) Units=km Length=0.0857678 bus1=p1udm102.1.2 bus2=p1ulv31.1.2 switch=n enabled=y phases=2 Linecode=1P_UG_AL_2/0_Converse_2

New Line.l(r:p1udm102-p1udt29lv) Units=km Length=0.009641020000000002 bus1=p1udt29lv.1.2 bus2=p1udm102.1.2 switch=n enabled=y phases=2 Linecode=1P_UG_AL_2/0_Converse_2

New Line.l(r:p1udm103-p1ulv7621) Units=km Length=0.0808187 bus1=p1udm103.1.2 bus2=p1ulv7621.1.2 switch=n enabled=y phases=2 Linecode=1P_UG_AL_1/0_Brenau_2

New Line.l(r:p1udm103-p1udt29lv) Units=km Length=0.00964088 bus1=p1udt29lv.1.2 bus2=p1udm103.1.2 switch=n enabled=y phases=2 Linecode=1P_UG_AL_1/0_Brenau_2

New Line.l(r:p1udt30lv-p1ulv32) Units=km Length=0.0151124 bus1=p1udt30lv.1.2 bus2=p1ulv32.1.2 switch=n enabled=y phases=2 Linecode=1P_UG_AL_1/0_Brenau_2

New Line.l(r:p1udm106-p1ulv1433) Units=km Length=0.0123923 bus1=p1udm106.1.2 bus2=p1ulv1433.1.2 switch=n enabled=y phases=2 Linecode=1P_UG_AL_1/0_Brenau_2

New Line.l(r:p1udm106-p1ulv11064) Units=km Length=0.010200100000000002 bus1=p1udm106.1.2 bus2=p1ulv11064.1.2 switch=n enabled=y phases=2 Linecode=1P_UG_AL_1/0_Brenau_2

New Line.l(r:p1udm106-p1udt30lv) Units=km Length=0.0240284 bus1=p1udt30lv.1.2 bus2=p1udm106.1.2 switch=n enabled=y phases=2 Linecode=1P_UG_AL_2/0_Converse_2

New Line.l(r:p1udm107-p1ulv1546) Units=km Length=0.015302700000000002 bus1=p1udm107.1.2 bus2=p1ulv1546.1.2 switch=n enabled=y phases=2 Linecode=1P_UG_AL_1/0_Brenau_2

New Line.l(r:p1udm105-p1ulv700) Units=km Length=0.0171193 bus1=p1udm105.1.2 bus2=p1ulv700.1.2 switch=n enabled=y phases=2 Linecode=1P_UG_AL_1/0_Brenau_2

New Line.l(r:p1udm105-p1ulv10952) Units=km Length=0.015336800000000001 bus1=p1udm105.1.2 bus2=p1ulv10952.1.2 switch=n enabled=y phases=2 Linecode=1P_UG_AL_1/0_Brenau_2

New Line.l(r:p1udm105-p1udm107) Units=km Length=0.00875646 bus1=p1udm107.1.2 bus2=p1udm105.1.2 switch=n enabled=y phases=2 Linecode=1P_UG_AL_2/0_Converse_2

New Line.l(r:p1udm107-p1udt30lv) Units=km Length=0.016552700000000004 bus1=p1udt30lv.1.2 bus2=p1udm107.1.2 switch=n enabled=y phases=2 Linecode=1P_UG_AL_4/0_Sweetbriar_2

New Line.l(r:p1udm110-p1ulv33) Units=km Length=0.01244 bus1=p1udm110.1.2 bus2=p1ulv33.1.2 switch=n enabled=y phases=2 Linecode=1P_UG_AL_1/0_Brenau_2

New Line.l(r:p1udm112-p1ulv5221) Units=km Length=0.0200222 bus1=p1udm112.1.2 bus2=p1ulv5221.1.2 switch=n enabled=y phases=2 Linecode=1P_UG_AL_1/0_Brenau_2

New Line.l(r:p1udm112-p1ulv7247) Units=km Length=0.010674 bus1=p1udm112.1.2 bus2=p1ulv7247.1.2 switch=n enabled=y phases=2 Linecode=1P_UG_AL_1/0_Brenau_2

New Line.l(r:p1udm110-p1udm112) Units=km Length=0.0087212 bus1=p1udm110.1.2 bus2=p1udm112.1.2 switch=n enabled=y phases=2 Linecode=1P_UG_AL_2/0_Converse_2

New Line.l(r:p1udm110-p1udt31lv) Units=km Length=0.00870708 bus1=p1udt31lv.1.2 bus2=p1udm110.1.2 switch=n enabled=y phases=2 Linecode=1P_UG_AL_4/0_Sweetbriar_2

New Line.l(r:p1udm111-p1ulv4746) Units=km Length=0.0119233 bus1=p1udm111.1.2 bus2=p1ulv4746.1.2 switch=n enabled=y phases=2 Linecode=1P_UG_AL_1/0_Brenau_2

New Line.l(r:p1udm111-p1udt31lv) Units=km Length=0.0182543 bus1=p1udt31lv.1.2 bus2=p1udm111.1.2 switch=n enabled=y phases=2 Linecode=1P_UG_AL_1/0_Brenau_2

New Line.l(r:p1udt32lv-p1ulv5987) Units=km Length=0.0240708 bus1=p1udt32lv.1.2 bus2=p1ulv5987.1.2 switch=n enabled=y phases=2 Linecode=1P_UG_AL_1/0_Brenau_2

New Line.l(r:p1udm115-p1ulv942) Units=km Length=0.0204397 bus1=p1udm115.1.2 bus2=p1ulv942.1.2 switch=n enabled=y phases=2 Linecode=1P_UG_AL_1/0_Brenau_2

New Line.l(r:p1udm114-p1ulv34) Units=km Length=0.0115313 bus1=p1udm114.1.2 bus2=p1ulv34.1.2 switch=n enabled=y phases=2 Linecode=1P_UG_AL_1/0_Brenau_2

New Line.l(r:p1udm114-p1udm115) Units=km Length=0.00903408 bus1=p1udm115.1.2 bus2=p1udm114.1.2 switch=n enabled=y phases=2 Linecode=1P_UG_AL_1/0_Brenau_2

New Line.l(r:p1udm115-p1udt32lv) Units=km Length=0.0180656 bus1=p1udt32lv.1.2 bus2=p1udm115.1.2 switch=n enabled=y phases=2 Linecode=1P_UG_AL_2/0_Converse_2

New Line.l(r:p1udm116-p1ulv2065) Units=km Length=0.0170559 bus1=p1udm116.1.2 bus2=p1ulv2065.1.2 switch=n enabled=y phases=2 Linecode=1P_UG_AL_1/0_Brenau_2

New Line.l(r:p1udm116-p1ulv7506) Units=km Length=0.0212833 bus1=p1udm116.1.2 bus2=p1ulv7506.1.2 switch=n enabled=y phases=2 Linecode=1P_UG_AL_2/0_Converse_2

New Line.l(r:p1udm116-p1udt32lv) Units=km Length=0.0090315 bus1=p1udt32lv.1.2 bus2=p1udm116.1.2 switch=n enabled=y phases=2 Linecode=1P_UG_AL_4/0_Sweetbriar_2

New Line.l(r:p1udm119-p1ulv35) Units=km Length=0.011013300000000002 bus1=p1udm119.1.2 bus2=p1ulv35.1.2 switch=n enabled=y phases=2 Linecode=1P_UG_AL_1/0_Brenau_2

New Line.l(r:p1udm121-p1ulv7249) Units=km Length=0.0036224300000000003 bus1=p1udm121.1.2 bus2=p1ulv7249.1.2 switch=n enabled=y phases=2 Linecode=1P_UG_AL_1/0_Brenau_2

New Line.l(r:p1udm119-p1udm121) Units=km Length=0.03797210000000001 bus1=p1udm119.1.2 bus2=p1udm121.1.2 switch=n enabled=y phases=2 Linecode=1P_UG_AL_1/0_Brenau_2

New Line.l(r:p1udm119-p1udt33lv) Units=km Length=0.0569228 bus1=p1udt33lv.1.2 bus2=p1udm119.1.2 switch=n enabled=y phases=2 Linecode=1P_UG_AL_2/0_Converse_2

New Line.l(r:p1udm120-p1ulv5654) Units=km Length=0.0163138 bus1=p1udm120.1.2 bus2=p1ulv5654.1.2 switch=n enabled=y phases=2 Linecode=1P_UG_AL_1/0_Brenau_2

New Line.l(r:p1udm120-p1ulv8358) Units=km Length=0.015096200000000002 bus1=p1udm120.1.2 bus2=p1ulv8358.1.2 switch=n enabled=y phases=2 Linecode=1P_UG_AL_1/0_Brenau_2

New Line.l(r:p1udm120-p1ulv9277) Units=km Length=0.0169485 bus1=p1udm120.1.2 bus2=p1ulv9277.1.2 switch=n enabled=y phases=2 Linecode=1P_UG_AL_1/0_Brenau_2

New Line.l(r:p1udm120-p1udt33lv) Units=km Length=0.00968042 bus1=p1udt33lv.1.2 bus2=p1udm120.1.2 switch=n enabled=y phases=2 Linecode=1P_UG_AL_4/0_Sweetbriar_2

New Line.l(r:p1udt34lv-p1ulv2935) Units=km Length=0.0222973 bus1=p1udt34lv.1.2 bus2=p1ulv2935.1.2 switch=n enabled=y phases=2 Linecode=1P_OH_AL_2/0_Rucina_2

New Line.l(r:p1udt34lv-p1ulv9531) Units=km Length=0.0152405 bus1=p1udt34lv.1.2 bus2=p1ulv9531.1.2 switch=n enabled=y phases=2 Linecode=1P_OH_AL_2/0_Rucina_2

New Line.l(r:p1udm124-p1ulv36) Units=km Length=0.0143688 bus1=p1udm124.1.2 bus2=p1ulv36.1.2 switch=n enabled=y phases=2 Linecode=1P_OH_AL_2/0_Rucina_2

New Line.l(r:p1udm124-p1ulv1174) Units=km Length=0.020817900000000004 bus1=p1udm124.1.2 bus2=p1ulv1174.1.2 switch=n enabled=y phases=2 Linecode=1P_OH_AL_2/0_Rucina_2

New Line.l(r:p1udm124-p1udt34lv) Units=km Length=0.0192932 bus1=p1udt34lv.1.2 bus2=p1udm124.1.2 switch=n enabled=y phases=2 Linecode=1P_OH_AL_2/0_Rucina_2

New Line.l(r:p1udm129-p1ulv6759) Units=km Length=0.0144812 bus1=p1udm129.1.2 bus2=p1ulv6759.1.2 switch=n enabled=y phases=2 Linecode=1P_UG_AL_2/0_Converse_2

New Line.l(r:p1udm128-p1ulv37) Units=km Length=0.0157305 bus1=p1udm128.1.2 bus2=p1ulv37.1.2 switch=n enabled=y phases=2 Linecode=1P_UG_AL_1/0_Brenau_2

New Line.l(r:p1udm128-p1udm129) Units=km Length=0.00992073 bus1=p1udm129.1.2 bus2=p1udm128.1.2 switch=n enabled=y phases=2 Linecode=1P_UG_AL_1/0_Brenau_2

New Line.l(r:p1udm129-p1udt35lv) Units=km Length=0.00992085 bus1=p1udt35lv.1.2 bus2=p1udm129.1.2 switch=n enabled=y phases=2 Linecode=1P_UG_AL_4/0_Sweetbriar_2

New Line.l(r:p1udm130-p1ulv7755) Units=km Length=0.0158779 bus1=p1udm130.1.2 bus2=p1ulv7755.1.2 switch=n enabled=y phases=2 Linecode=1P_UG_AL_1/0_Brenau_2

New Line.l(r:p1udm130-p1udt35lv) Units=km Length=0.0198316 bus1=p1udt35lv.1.2 bus2=p1udm130.1.2 switch=n enabled=y phases=2 Linecode=1P_UG_AL_1/0_Brenau_2

New Line.l(r:p1udm132-p1ulv4174) Units=km Length=0.0155756 bus1=p1udm132.1.2 bus2=p1ulv4174.1.2 switch=n enabled=y phases=2 Linecode=1P_UG_AL_1/0_Brenau_2

New Line.l(r:p1udm132-p1ulv8360) Units=km Length=0.0163617 bus1=p1udm132.1.2 bus2=p1ulv8360.1.2 switch=n enabled=y phases=2 Linecode=1P_UG_AL_1/0_Brenau_2

New Line.l(r:p1udm132-p1udt36lv) Units=km Length=0.00992073 bus1=p1udt36lv.1.2 bus2=p1udm132.1.2 switch=n enabled=y phases=2 Linecode=1P_UG_AL_4/0_Sweetbriar_2

New Line.l(r:p1udm134-p1ulv11309) Units=km Length=0.0165195 bus1=p1udm134.1.2 bus2=p1ulv11309.1.2 switch=n enabled=y phases=2 Linecode=1P_UG_AL_1/0_Brenau_2

New Line.l(r:p1udm131-p1ulv38) Units=km Length=0.015140200000000001 bus1=p1udm131.1.2 bus2=p1ulv38.1.2 switch=n enabled=y phases=2 Linecode=1P_UG_AL_1/0_Brenau_2

New Line.l(r:p1udm131-p1udm134) Units=km Length=0.00992073 bus1=p1udm134.1.2 bus2=p1udm131.1.2 switch=n enabled=y phases=2 Linecode=1P_UG_AL_1/0_Brenau_2

New Line.l(r:p1udm134-p1udt36lv) Units=km Length=0.00991085 bus1=p1udt36lv.1.2 bus2=p1udm134.1.2 switch=n enabled=y phases=2 Linecode=1P_UG_AL_4/0_Sweetbriar_2

New Line.l(r:p1udt37lv-p1ulv1553) Units=km Length=0.00823046 bus1=p1udt37lv.1.2 bus2=p1ulv1553.1.2 switch=n enabled=y phases=2 Linecode=1P_UG_AL_1/0_Brenau_2

New Line.l(r:p1udm135-p1ulv39) Units=km Length=0.0195717 bus1=p1udm135.1.2 bus2=p1ulv39.1.2 switch=n enabled=y phases=2 Linecode=1P_UG_AL_1/0_Brenau_2

New Line.l(r:p1udm135-p1udt37lv) Units=km Length=0.0292964 bus1=p1udt37lv.1.2 bus2=p1udm135.1.2 switch=n enabled=y phases=2 Linecode=1P_UG_AL_1/0_Brenau_2

New Line.l(r:p1udm136-p1ulv710) Units=km Length=0.0179801 bus1=p1udm136.1.2 bus2=p1ulv710.1.2 switch=n enabled=y phases=2 Linecode=1P_UG_AL_1/0_Brenau_2

New Line.l(r:p1udm138-p1ulv5870) Units=km Length=0.0178365 bus1=p1udm138.1.2 bus2=p1ulv5870.1.2 switch=n enabled=y phases=2 Linecode=1P_UG_AL_1/0_Brenau_2

New Line.l(r:p1udm136-p1udm138) Units=km Length=0.009765240000000001 bus1=p1udm136.1.2 bus2=p1udm138.1.2 switch=n enabled=y phases=2 Linecode=1P_UG_AL_1/0_Brenau_2

New Line.l(r:p1udm136-p1udt37lv) Units=km Length=0.009775240000000001 bus1=p1udt37lv.1.2 bus2=p1udm136.1.2 switch=n enabled=y phases=2 Linecode=1P_UG_AL_4/0_Sweetbriar_2

New Line.l(r:p1udt38lv-p1ulv40) Units=km Length=0.0187753 bus1=p1udt38lv.1.2 bus2=p1ulv40.1.2 switch=n enabled=y phases=2 Linecode=1P_UG_AL_1/0_Brenau_2

New Line.l(r:p1udm140-p1ulv12370) Units=km Length=0.0168758 bus1=p1udm140.1.2 bus2=p1ulv12370.1.2 switch=n enabled=y phases=2 Linecode=1P_UG_AL_1/0_Brenau_2

New Line.l(r:p1udm140-p1udt38lv) Units=km Length=0.009765240000000001 bus1=p1udt38lv.1.2 bus2=p1udm140.1.2 switch=n enabled=y phases=2 Linecode=1P_UG_AL_1/0_Brenau_2

New Line.l(r:p1udm141-p1ulv41) Units=km Length=0.0225341 bus1=p1udm141.1.2 bus2=p1ulv41.1.2 switch=n enabled=y phases=2 Linecode=1P_UG_AL_1/0_Brenau_2

New Line.l(r:p1udm141-p1ulv3310) Units=km Length=0.0168228 bus1=p1udm141.1.2 bus2=p1ulv3310.1.2 switch=n enabled=y phases=2 Linecode=1P_UG_AL_1/0_Brenau_2

New Line.l(r:p1udm141-p1ulv7868) Units=km Length=0.016149200000000002 bus1=p1udm141.1.2 bus2=p1ulv7868.1.2 switch=n enabled=y phases=2 Linecode=1P_UG_AL_1/0_Brenau_2

New Line.l(r:p1udm141-p1udt39lv) Units=km Length=0.00927065 bus1=p1udt39lv.1.2 bus2=p1udm141.1.2 switch=n enabled=y phases=2 Linecode=1P_UG_AL_4/0_Sweetbriar_2

New Line.l(r:p1udm142-p1ulv1938) Units=km Length=0.0165203 bus1=p1udm142.1.2 bus2=p1ulv1938.1.2 switch=n enabled=y phases=2 Linecode=1P_UG_AL_1/0_Brenau_2

New Line.l(r:p1udm142-p1ulv12133) Units=km Length=0.0163484 bus1=p1udm142.1.2 bus2=p1ulv12133.1.2 switch=n enabled=y phases=2 Linecode=1P_UG_AL_1/0_Brenau_2

New Line.l(r:p1udm142-p1udt39lv) Units=km Length=0.00927054 bus1=p1udt39lv.1.2 bus2=p1udm142.1.2 switch=n enabled=y phases=2 Linecode=1P_UG_AL_2/0_Converse_2

New Line.l(r:p1udt44lv-p1ulv46) Units=km Length=0.017286 bus1=p1udt44lv.1.2 bus2=p1ulv46.1.2 switch=n enabled=y phases=2 Linecode=1P_OH_AL_2/0_Rucina_2

New Line.l(r:p1udt44lv-p1ulv9402) Units=km Length=0.0150631 bus1=p1udt44lv.1.2 bus2=p1ulv9402.1.2 switch=n enabled=y phases=2 Linecode=1P_OH_AL_2/0_Rucina_2

New Line.l(r:p1udm164-p1ulv3433) Units=km Length=0.0192706 bus1=p1udm164.1.2 bus2=p1ulv3433.1.2 switch=n enabled=y phases=2 Linecode=1P_OH_AL_2/0_Rucina_2

New Line.l(r:p1udm164-p1ulv8367) Units=km Length=0.0148508 bus1=p1udm164.1.2 bus2=p1ulv8367.1.2 switch=n enabled=y phases=2 Linecode=1P_OH_AL_2/0_Rucina_2

New Line.l(r:p1udm164-p1udt44lv) Units=km Length=0.0194807 bus1=p1udt44lv.1.2 bus2=p1udm164.1.2 switch=n enabled=y phases=2 Linecode=1P_OH_AL_2/0_Rucina_2

New Line.l(r:p1udm165-p1ulv4043) Units=km Length=0.0511412 bus1=p1udm165.1.2 bus2=p1ulv4043.1.2 switch=n enabled=y phases=2 Linecode=1P_OH_AL_4/0_Zuzara_2

New Line.l(r:p1udm165-p1udt44lv) Units=km Length=0.0194706 bus1=p1udt44lv.1.2 bus2=p1udm165.1.2 switch=n enabled=y phases=2 Linecode=1P_OH_AL_2/0_Rucina_2

New Line.l(r:p1udt45lv-p1ulv2820) Units=km Length=0.0196337 bus1=p1udt45lv.1.2 bus2=p1ulv2820.1.2 switch=n enabled=y phases=2 Linecode=1P_UG_AL_1/0_Brenau_2

New Line.l(r:p1udt45lv-p1ulv4756) Units=km Length=0.0110408 bus1=p1udt45lv.1.2 bus2=p1ulv4756.1.2 switch=n enabled=y phases=2 Linecode=1P_UG_AL_1/0_Brenau_2

New Line.l(r:p1udm168-p1ulv47) Units=km Length=0.0112981 bus1=p1udm168.1.2 bus2=p1ulv47.1.2 switch=n enabled=y phases=2 Linecode=1P_UG_AL_4/0_Sweetbriar_2

New Line.l(r:p1udm168-p1udt45lv) Units=km Length=0.0192707 bus1=p1udt45lv.1.2 bus2=p1udm168.1.2 switch=n enabled=y phases=2 Linecode=1P_UG_AL_4/0_Sweetbriar_2

New Line.l(r:p1udm172-p1ulv11800) Units=km Length=0.0109938 bus1=p1udm172.1.2 bus2=p1ulv11800.1.2 switch=n enabled=y phases=2 Linecode=1P_UG_AL_1/0_Brenau_2

New Line.l(r:p1udm171-p1ulv7144) Units=km Length=0.0194402 bus1=p1udm171.1.2 bus2=p1ulv7144.1.2 switch=n enabled=y phases=2 Linecode=1P_UG_AL_1/0_Brenau_2

New Line.l(r:p1udm171-p1udm172) Units=km Length=0.00964033 bus1=p1udm172.1.2 bus2=p1udm171.1.2 switch=n enabled=y phases=2 Linecode=1P_UG_AL_1/0_Brenau_2

New Line.l(r:p1udm172-p1udt45lv) Units=km Length=0.0192708 bus1=p1udt45lv.1.2 bus2=p1udm172.1.2 switch=n enabled=y phases=2 Linecode=1P_UG_AL_2/0_Converse_2

New Line.l(r:p1udm173-p1ulv48) Units=km Length=0.0170368 bus1=p1udm173.1.2 bus2=p1ulv48.1.2 switch=n enabled=y phases=2 Linecode=1P_UG_AL_1/0_Brenau_2

New Line.l(r:p1udm173-p1udt46lv) Units=km Length=0.009950050000000002 bus1=p1udt46lv.1.2 bus2=p1udm173.1.2 switch=n enabled=y phases=2 Linecode=1P_UG_AL_1/0_Brenau_2

New Line.l(r:p1udm174-p1ulv8763) Units=km Length=0.0145882 bus1=p1udm174.1.2 bus2=p1ulv8763.1.2 switch=n enabled=y phases=2 Linecode=1P_UG_AL_1/0_Brenau_2

New Line.l(r:p1udm174-p1ulv10356) Units=km Length=0.0180136 bus1=p1udm174.1.2 bus2=p1ulv10356.1.2 switch=n enabled=y phases=2 Linecode=1P_UG_AL_1/0_Brenau_2

New Line.l(r:p1udm174-p1udt46lv) Units=km Length=0.00995008 bus1=p1udt46lv.1.2 bus2=p1udm174.1.2 switch=n enabled=y phases=2 Linecode=1P_UG_AL_2/0_Converse_2

New Line.l(r:p1udm176-p1ulv49) Units=km Length=0.0100239 bus1=p1udm176.1.2 bus2=p1ulv49.1.2 switch=n enabled=y phases=2 Linecode=1P_OH_AL_2/0_Rucina_2

New Line.l(r:p1udm176-p1udt47lv) Units=km Length=0.0179505 bus1=p1udt47lv.1.2 bus2=p1udm176.1.2 switch=n enabled=y phases=2 Linecode=1P_OH_AL_2/0_Rucina_2

New Line.l(r:p1udm177-p1ulv9904) Units=km Length=0.012381 bus1=p1udm177.1.2 bus2=p1ulv9904.1.2 switch=n enabled=y phases=2 Linecode=1P_OH_AL_2/0_Rucina_2

New Line.l(r:p1udm177-p1udt47lv) Units=km Length=0.0371323 bus1=p1udt47lv.1.2 bus2=p1udm177.1.2 switch=n enabled=y phases=2 Linecode=1P_OH_AL_4/0_Zuzara_2

New Line.l(r:p1udt152lv-p1ulv1802) Units=km Length=0.00636042 bus1=p1udt152lv.1.2 bus2=p1ulv1802.1.2 switch=n enabled=y phases=2 Linecode=1P_OH_AL_2/0_Rucina_2

New Line.l(r:p1udm553-p1ulv156) Units=km Length=0.0191626 bus1=p1udm553.1.2 bus2=p1ulv156.1.2 switch=n enabled=y phases=2 Linecode=1P_OH_AL_2/0_Rucina_2

New Line.l(r:p1udm553-p1udt152lv) Units=km Length=0.0180589 bus1=p1udt152lv.1.2 bus2=p1udm553.1.2 switch=n enabled=y phases=2 Linecode=1P_OH_AL_2/0_Rucina_2

New Line.l(r:p1udm555-p1ulv157) Units=km Length=0.0123813 bus1=p1udm555.1.2 bus2=p1ulv157.1.2 switch=n enabled=y phases=2 Linecode=1P_UG_AL_1/0_Brenau_2

New Line.l(r:p1udm556-p1ulv5748) Units=km Length=0.0136363 bus1=p1udm556.1.2 bus2=p1ulv5748.1.2 switch=n enabled=y phases=2 Linecode=1P_UG_AL_1/0_Brenau_2

New Line.l(r:p1udm556-p1ulv9262) Units=km Length=0.0112584 bus1=p1udm556.1.2 bus2=p1ulv9262.1.2 switch=n enabled=y phases=2 Linecode=1P_UG_AL_1/0_Brenau_2

New Line.l(r:p1udm555-p1udm556) Units=km Length=0.00917361 bus1=p1udm555.1.2 bus2=p1udm556.1.2 switch=n enabled=y phases=2 Linecode=1P_UG_AL_2/0_Converse_2

New Line.l(r:p1udm555-p1udt153lv) Units=km Length=0.00916865 bus1=p1udt153lv.1.2 bus2=p1udm555.1.2 switch=n enabled=y phases=2 Linecode=1P_UG_AL_4/0_Sweetbriar_2

New Line.l(r:p1udm559-p1ulv10083) Units=km Length=0.0112367 bus1=p1udm559.1.2 bus2=p1ulv10083.1.2 switch=n enabled=y phases=2 Linecode=1P_UG_AL_1/0_Brenau_2

New Line.l(r:p1udm557-p1ulv6490) Units=km Length=0.0111359 bus1=p1udm557.1.2 bus2=p1ulv6490.1.2 switch=n enabled=y phases=2 Linecode=1P_UG_AL_1/0_Brenau_2

New Line.l(r:p1udm557-p1udm559) Units=km Length=0.0130195 bus1=p1udm559.1.2 bus2=p1udm557.1.2 switch=n enabled=y phases=2 Linecode=1P_UG_AL_1/0_Brenau_2

New Line.l(r:p1udm559-p1udt153lv) Units=km Length=0.0199236 bus1=p1udt153lv.1.2 bus2=p1udm559.1.2 switch=n enabled=y phases=2 Linecode=1P_UG_AL_2/0_Converse_2

New Line.l(r:p1udt155lv-p1ulv6230) Units=km Length=0.0131302 bus1=p1udt155lv.1.2 bus2=p1ulv6230.1.2 switch=n enabled=y phases=2 Linecode=1P_OH_AL_2/0_Rucina_2

New Line.l(r:p1udm563-p1ulv159) Units=km Length=0.0145215 bus1=p1udm563.1.2 bus2=p1ulv159.1.2 switch=n enabled=y phases=2 Linecode=1P_OH_AL_2/0_Rucina_2

New Line.l(r:p1udm563-p1udt155lv) Units=km Length=0.0196426 bus1=p1udt155lv.1.2 bus2=p1udm563.1.2 switch=n enabled=y phases=2 Linecode=1P_OH_AL_2/0_Rucina_2

New Line.l(r:p1udm564-p1ulv5212) Units=km Length=0.0144665 bus1=p1udm564.1.2 bus2=p1ulv5212.1.2 switch=n enabled=y phases=2 Linecode=1P_OH_AL_2/0_Rucina_2

New Line.l(r:p1udm564-p1udt155lv) Units=km Length=0.0317749 bus1=p1udt155lv.1.2 bus2=p1udm564.1.2 switch=n enabled=y phases=2 Linecode=1P_OH_AL_4/0_Zuzara_2

New Line.l(r:p1udt157lv-p1ulv5647) Units=km Length=0.0106158 bus1=p1udt157lv.1.2 bus2=p1ulv5647.1.2 switch=n enabled=y phases=2 Linecode=1P_UG_AL_1/0_Brenau_2

New Line.l(r:p1udt157lv-p1ulv6352) Units=km Length=0.0105707 bus1=p1udt157lv.1.2 bus2=p1ulv6352.1.2 switch=n enabled=y phases=2 Linecode=1P_UG_AL_1/0_Brenau_2

New Line.l(r:p1udm574-p1ulv6094) Units=km Length=0.00297849 bus1=p1udm574.1.2 bus2=p1ulv6094.1.2 switch=n enabled=y phases=2 Linecode=1P_UG_AL_1/0_Brenau_2

New Line.l(r:p1udm574-p1ulv10087) Units=km Length=0.0105792 bus1=p1udm574.1.2 bus2=p1ulv10087.1.2 switch=n enabled=y phases=2 Linecode=1P_UG_AL_1/0_Brenau_2

New Line.l(r:p1udm572-p1ulv3784) Units=km Length=0.00257661 bus1=p1udm572.1.2 bus2=p1ulv3784.1.2 switch=n enabled=y phases=2 Linecode=1P_UG_AL_1/0_Brenau_2

New Line.l(r:p1udm572-p1udm574) Units=km Length=0.0178285 bus1=p1udm574.1.2 bus2=p1udm572.1.2 switch=n enabled=y phases=2 Linecode=1P_UG_AL_1/0_Brenau_2

New Line.l(r:p1udm574-p1udt157lv) Units=km Length=0.0277056 bus1=p1udt157lv.1.2 bus2=p1udm574.1.2 switch=n enabled=y phases=2 Linecode=1P_UG_AL_4/0_Sweetbriar_2

New Line.l(r:p1udm577-p1ulv10943) Units=km Length=0.0117131 bus1=p1udm577.1.2 bus2=p1ulv10943.1.2 switch=n enabled=y phases=2 Linecode=1P_UG_AL_1/0_Brenau_2

New Line.l(r:p1udm571-p1ulv161) Units=km Length=0.0101528 bus1=p1udm571.1.2 bus2=p1ulv161.1.2 switch=n enabled=y phases=2 Linecode=1P_UG_AL_1/0_Brenau_2

New Line.l(r:p1udm578-p1ulv12236) Units=km Length=0.009927740000000001 bus1=p1udm578.1.2 bus2=p1ulv12236.1.2 switch=n enabled=y phases=2 Linecode=1P_UG_AL_1/0_Brenau_2

New Line.l(r:p1udm571-p1udm578) Units=km Length=0.027715400000000005 bus1=p1udm571.1.2 bus2=p1udm578.1.2 switch=n enabled=y phases=2 Linecode=1P_UG_AL_1/0_Brenau_2

New Line.l(r:p1udm571-p1udm577) Units=km Length=0.0184743 bus1=p1udm577.1.2 bus2=p1udm571.1.2 switch=n enabled=y phases=2 Linecode=1P_UG_AL_2/0_Converse_2

New Line.l(r:p1udm577-p1udt157lv) Units=km Length=0.00924301 bus1=p1udt157lv.1.2 bus2=p1udm577.1.2 switch=n enabled=y phases=2 Linecode=1P_UG_AL_4/0_Sweetbriar_2

New Line.l(r:p1udt159lv-p1ulv163) Units=km Length=0.0163741 bus1=p1udt159lv.1.2 bus2=p1ulv163.1.2 switch=n enabled=y phases=2 Linecode=1P_UG_AL_1/0_Brenau_2

New Line.l(r:p1udm581-p1ulv10718) Units=km Length=0.0158582 bus1=p1udm581.1.2 bus2=p1ulv10718.1.2 switch=n enabled=y phases=2 Linecode=1P_UG_AL_1/0_Brenau_2

New Line.l(r:p1udm581-p1udt159lv) Units=km Length=0.0195518 bus1=p1udt159lv.1.2 bus2=p1udm581.1.2 switch=n enabled=y phases=2 Linecode=1P_UG_AL_1/0_Brenau_2

New Line.l(r:p1udm582-p1ulv12242) Units=km Length=0.0157315 bus1=p1udm582.1.2 bus2=p1ulv12242.1.2 switch=n enabled=y phases=2 Linecode=1P_UG_AL_1/0_Brenau_2

New Line.l(r:p1udm582-p1udt159lv) Units=km Length=0.00976592 bus1=p1udt159lv.1.2 bus2=p1udm582.1.2 switch=n enabled=y phases=2 Linecode=1P_UG_AL_1/0_Brenau_2

New Line.l(r:p1udt160lv-p1ulv164) Units=km Length=0.0155672 bus1=p1udt160lv.1.2 bus2=p1ulv164.1.2 switch=n enabled=y phases=2 Linecode=1P_UG_AL_1/0_Brenau_2

New Line.l(r:p1udt160lv-p1ulv11659) Units=km Length=0.018403600000000003 bus1=p1udt160lv.1.2 bus2=p1ulv11659.1.2 switch=n enabled=y phases=2 Linecode=1P_UG_AL_1/0_Brenau_2

New Line.l(r:p1udm586-p1ulv6618) Units=km Length=0.020071600000000002 bus1=p1udm586.1.2 bus2=p1ulv6618.1.2 switch=n enabled=y phases=2 Linecode=1P_UG_AL_1/0_Brenau_2

New Line.l(r:p1udm585-p1ulv2798) Units=km Length=0.0156028 bus1=p1udm585.1.2 bus2=p1ulv2798.1.2 switch=n enabled=y phases=2 Linecode=1P_UG_AL_1/0_Brenau_2

New Line.l(r:p1udm585-p1udm586) Units=km Length=0.00992008 bus1=p1udm586.1.2 bus2=p1udm585.1.2 switch=n enabled=y phases=2 Linecode=1P_UG_AL_1/0_Brenau_2

New Line.l(r:p1udm586-p1udt160lv) Units=km Length=0.00992008 bus1=p1udt160lv.1.2 bus2=p1udm586.1.2 switch=n enabled=y phases=2 Linecode=1P_UG_AL_4/0_Sweetbriar_2

New Line.l(r:p1udm587-p1ulv6620) Units=km Length=0.0158426 bus1=p1udm587.1.2 bus2=p1ulv6620.1.2 switch=n enabled=y phases=2 Linecode=1P_UG_AL_1/0_Brenau_2

New Line.l(r:p1udm584-p1ulv277) Units=km Length=0.0169339 bus1=p1udm584.1.2 bus2=p1ulv277.1.2 switch=n enabled=y phases=2 Linecode=1P_UG_AL_1/0_Brenau_2

New Line.l(r:p1udm584-p1udm587) Units=km Length=0.00992008 bus1=p1udm587.1.2 bus2=p1udm584.1.2 switch=n enabled=y phases=2 Linecode=1P_UG_AL_1/0_Brenau_2

New Line.l(r:p1udm587-p1udt160lv) Units=km Length=0.0198401 bus1=p1udt160lv.1.2 bus2=p1udm587.1.2 switch=n enabled=y phases=2 Linecode=1P_UG_AL_4/0_Sweetbriar_2

New Line.l(r:p1udm589-p1ulv165) Units=km Length=0.0108576 bus1=p1udm589.1.2 bus2=p1ulv165.1.2 switch=n enabled=y phases=2 Linecode=1P_OH_AL_2/0_Rucina_2

New Line.l(r:p1udm589-p1udt161lv) Units=km Length=0.0174103 bus1=p1udt161lv.1.2 bus2=p1udm589.1.2 switch=n enabled=y phases=2 Linecode=1P_OH_AL_2/0_Rucina_2

New Line.l(r:p1udm590-p1ulv9887) Units=km Length=0.00898355 bus1=p1udm590.1.2 bus2=p1ulv9887.1.2 switch=n enabled=y phases=2 Linecode=1P_OH_AL_2/0_Rucina_2

New Line.l(r:p1udm590-p1udt161lv) Units=km Length=0.0174103 bus1=p1udt161lv.1.2 bus2=p1udm590.1.2 switch=n enabled=y phases=2 Linecode=1P_OH_AL_2/0_Rucina_2

New Line.l(r:p1udt162lv-p1ulv8887) Units=km Length=0.0173618 bus1=p1udt162lv.1.2 bus2=p1ulv8887.1.2 switch=n enabled=y phases=2 Linecode=1P_UG_AL_2/0_Converse_2

New Line.l(r:p1udt162lv-p1ulv9760) Units=km Length=0.0151415 bus1=p1udt162lv.1.2 bus2=p1ulv9760.1.2 switch=n enabled=y phases=2 Linecode=1P_UG_AL_1/0_Brenau_2

New Line.l(r:p1udm591-p1ulv166) Units=km Length=0.014081700000000003 bus1=p1udm591.1.2 bus2=p1ulv166.1.2 switch=n enabled=y phases=2 Linecode=1P_UG_AL_1/0_Brenau_2

New Line.l(r:p1udm591-p1ulv11420) Units=km Length=0.0167066 bus1=p1udm591.1.2 bus2=p1ulv11420.1.2 switch=n enabled=y phases=2 Linecode=1P_UG_AL_1/0_Brenau_2

New Line.l(r:p1udm591-p1udt162lv) Units=km Length=0.0190714 bus1=p1udt162lv.1.2 bus2=p1udm591.1.2 switch=n enabled=y phases=2 Linecode=1P_UG_AL_2/0_Converse_2

New Line.l(r:p1udm592-p1ulv1298) Units=km Length=0.01745 bus1=p1udm592.1.2 bus2=p1ulv1298.1.2 switch=n enabled=y phases=2 Linecode=1P_UG_AL_1/0_Brenau_2

New Line.l(r:p1udm593-p1ulv7624) Units=km Length=0.0114609 bus1=p1udm593.1.2 bus2=p1ulv7624.1.2 switch=n enabled=y phases=2 Linecode=1P_UG_AL_1/0_Brenau_2

New Line.l(r:p1udm592-p1udm593) Units=km Length=0.00954075 bus1=p1udm592.1.2 bus2=p1udm593.1.2 switch=n enabled=y phases=2 Linecode=1P_UG_AL_1/0_Brenau_2

New Line.l(r:p1udm592-p1udt162lv) Units=km Length=0.019071300000000003 bus1=p1udt162lv.1.2 bus2=p1udm592.1.2 switch=n enabled=y phases=2 Linecode=1P_UG_AL_2/0_Converse_2

New Line.l(r:p1udm598-p1ulv1931) Units=km Length=0.00925618 bus1=p1udm598.1.2 bus2=p1ulv1931.1.2 switch=n enabled=y phases=2 Linecode=1P_UG_AL_1/0_Brenau_2

New Line.l(r:p1udm597-p1ulv167) Units=km Length=0.0165739 bus1=p1udm597.1.2 bus2=p1ulv167.1.2 switch=n enabled=y phases=2 Linecode=1P_UG_AL_1/0_Brenau_2

New Line.l(r:p1udm601-p1ulv6500) Units=km Length=0.0197471 bus1=p1udm601.1.2 bus2=p1ulv6500.1.2 switch=n enabled=y phases=2 Linecode=1P_UG_AL_1/0_Brenau_2

New Line.l(r:p1udm599-p1ulv4168) Units=km Length=0.0116999 bus1=p1udm599.1.2 bus2=p1ulv4168.1.2 switch=n enabled=y phases=2 Linecode=1P_UG_AL_1/0_Brenau_2

New Line.l(r:p1udm599-p1udm601) Units=km Length=0.007422240000000001 bus1=p1udm601.1.2 bus2=p1udm599.1.2 switch=n enabled=y phases=2 Linecode=1P_UG_AL_1/0_Brenau_2

New Line.l(r:p1udm597-p1udm601) Units=km Length=0.0199767 bus1=p1udm597.1.2 bus2=p1udm601.1.2 switch=n enabled=y phases=2 Linecode=1P_UG_AL_2/0_Converse_2

New Line.l(r:p1udm597-p1udm598) Units=km Length=0.0051265 bus1=p1udm598.1.2 bus2=p1udm597.1.2 switch=n enabled=y phases=2 Linecode=1P_UG_AL_4/0_Sweetbriar_2

New Line.l(r:p1udm598-p1udt163lv) Units=km Length=0.00656215 bus1=p1udt163lv.1.2 bus2=p1udm598.1.2 switch=n enabled=y phases=2 Linecode=1P_UG_AL_4/0_Sweetbriar_2

New Line.l(r:p1udm600-p1ulv4388) Units=km Length=0.00980321 bus1=p1udm600.1.2 bus2=p1ulv4388.1.2 switch=n enabled=y phases=2 Linecode=1P_UG_AL_2/0_Converse_2

New Line.l(r:p1udm602-p1ulv9274) Units=km Length=0.00941475 bus1=p1udm602.1.2 bus2=p1ulv9274.1.2 switch=n enabled=y phases=2 Linecode=1P_UG_AL_1/0_Brenau_2

New Line.l(r:p1udm600-p1udm602) Units=km Length=0.0718317 bus1=p1udm600.1.2 bus2=p1udm602.1.2 switch=n enabled=y phases=2 Linecode=1P_UG_AL_1/0_Brenau_2

New Line.l(r:p1udm600-p1udt163lv) Units=km Length=0.00657444 bus1=p1udt163lv.1.2 bus2=p1udm600.1.2 switch=n enabled=y phases=2 Linecode=1P_UG_AL_4/0_Sweetbriar_2

New Line.l(r:p1udm604-p1ulv2928) Units=km Length=0.0106773 bus1=p1udm604.1.2 bus2=p1ulv2928.1.2 switch=n enabled=y phases=2 Linecode=1P_UG_AL_1/0_Brenau_2

New Line.l(r:p1udm605-p1ulv5545) Units=km Length=0.0112483 bus1=p1udm605.1.2 bus2=p1ulv5545.1.2 switch=n enabled=y phases=2 Linecode=1P_UG_AL_1/0_Brenau_2

New Line.l(r:p1udm604-p1udm605) Units=km Length=0.0182583 bus1=p1udm604.1.2 bus2=p1udm605.1.2 switch=n enabled=y phases=2 Linecode=1P_UG_AL_1/0_Brenau_2

New Line.l(r:p1udm608-p1ulv7863) Units=km Length=0.0124921 bus1=p1udm608.1.2 bus2=p1ulv7863.1.2 switch=n enabled=y phases=2 Linecode=1P_UG_AL_1/0_Brenau_2

New Line.l(r:p1udm603-p1ulv168) Units=km Length=0.0195036 bus1=p1udm603.1.2 bus2=p1ulv168.1.2 switch=n enabled=y phases=2 Linecode=1P_UG_AL_1/0_Brenau_2

New Line.l(r:p1udm603-p1udm608) Units=km Length=0.00940785 bus1=p1udm608.1.2 bus2=p1udm603.1.2 switch=n enabled=y phases=2 Linecode=1P_UG_AL_1/0_Brenau_2

New Line.l(r:p1udm604-p1udm608) Units=km Length=0.0391222 bus1=p1udm604.1.2 bus2=p1udm608.1.2 switch=n enabled=y phases=2 Linecode=1P_UG_AL_2/0_Converse_2

New Line.l(r:p1udm604-p1udt164lv) Units=km Length=0.0189474 bus1=p1udt164lv.1.2 bus2=p1udm604.1.2 switch=n enabled=y phases=2 Linecode=1P_UG_AL_4/0_Sweetbriar_2

New Line.l(r:p1udm609-p1ulv11069) Units=km Length=0.012143300000000001 bus1=p1udm609.1.2 bus2=p1ulv11069.1.2 switch=n enabled=y phases=2 Linecode=1P_UG_AL_1/0_Brenau_2

New Line.l(r:p1udm606-p1ulv5546) Units=km Length=0.0118249 bus1=p1udm606.1.2 bus2=p1ulv5546.1.2 switch=n enabled=y phases=2 Linecode=1P_UG_AL_1/0_Brenau_2

New Line.l(r:p1udm606-p1ulv7020) Units=km Length=0.0196653 bus1=p1udm606.1.2 bus2=p1ulv7020.1.2 switch=n enabled=y phases=2 Linecode=1P_UG_AL_1/0_Brenau_2

New Line.l(r:p1udm606-p1udm609) Units=km Length=0.00998697 bus1=p1udm609.1.2 bus2=p1udm606.1.2 switch=n enabled=y phases=2 Linecode=1P_UG_AL_2/0_Converse_2

New Line.l(r:p1udm609-p1udt164lv) Units=km Length=0.0198112 bus1=p1udt164lv.1.2 bus2=p1udm609.1.2 switch=n enabled=y phases=2 Linecode=1P_UG_AL_4/0_Sweetbriar_2

New Line.l(r:p1udm613-p1ulv5760) Units=km Length=0.0083373 bus1=p1udm613.1.2 bus2=p1ulv5760.1.2 switch=n enabled=y phases=2 Linecode=1P_UG_AL_1/0_Brenau_2

New Line.l(r:p1udm614-p1ulv10339) Units=km Length=0.0105374 bus1=p1udm614.1.2 bus2=p1ulv10339.1.2 switch=n enabled=y phases=2 Linecode=1P_UG_AL_1/0_Brenau_2

New Line.l(r:p1udm610-p1ulv169) Units=km Length=0.0213132 bus1=p1udm610.1.2 bus2=p1ulv169.1.2 switch=n enabled=y phases=2 Linecode=1P_UG_AL_1/0_Brenau_2

New Line.l(r:p1udm610-p1udm614) Units=km Length=0.0092 bus1=p1udm614.1.2 bus2=p1udm610.1.2 switch=n enabled=y phases=2 Linecode=1P_UG_AL_1/0_Brenau_2

New Line.l(r:p1udm613-p1udm614) Units=km Length=0.0367571 bus1=p1udm613.1.2 bus2=p1udm614.1.2 switch=n enabled=y phases=2 Linecode=1P_UG_AL_2/0_Converse_2

New Line.l(r:p1udm613-p1udt165lv) Units=km Length=0.0276471 bus1=p1udt165lv.1.2 bus2=p1udm613.1.2 switch=n enabled=y phases=2 Linecode=1P_UG_AL_4/0_Sweetbriar_2

New Line.l(r:p1udm615-p1ulv11789) Units=km Length=0.0112796 bus1=p1udm615.1.2 bus2=p1ulv11789.1.2 switch=n enabled=y phases=2 Linecode=1P_UG_AL_1/0_Brenau_2

New Line.l(r:p1udm611-p1ulv1056) Units=km Length=0.0111742 bus1=p1udm611.1.2 bus2=p1ulv1056.1.2 switch=n enabled=y phases=2 Linecode=1P_UG_AL_1/0_Brenau_2

New Line.l(r:p1udm612-p1ulv5758) Units=km Length=0.0112415 bus1=p1udm612.1.2 bus2=p1ulv5758.1.2 switch=n enabled=y phases=2 Linecode=1P_UG_AL_1/0_Brenau_2

New Line.l(r:p1udm611-p1udm612) Units=km Length=0.00924655 bus1=p1udm611.1.2 bus2=p1udm612.1.2 switch=n enabled=y phases=2 Linecode=1P_UG_AL_1/0_Brenau_2

New Line.l(r:p1udm611-p1udm615) Units=km Length=0.0092519 bus1=p1udm615.1.2 bus2=p1udm611.1.2 switch=n enabled=y phases=2 Linecode=1P_UG_AL_2/0_Converse_2

New Line.l(r:p1udm615-p1udt165lv) Units=km Length=0.0184984 bus1=p1udt165lv.1.2 bus2=p1udm615.1.2 switch=n enabled=y phases=2 Linecode=1P_UG_AL_4/0_Sweetbriar_2

New Line.l(r:p1udt166lv-p1ulv170) Units=km Length=0.0120927 bus1=p1udt166lv.1.2 bus2=p1ulv170.1.2 switch=n enabled=y phases=2 Linecode=1P_UG_AL_1/0_Brenau_2

New Line.l(r:p1udt166lv-p1ulv2692) Units=km Length=0.019746 bus1=p1udt166lv.1.2 bus2=p1ulv2692.1.2 switch=n enabled=y phases=2 Linecode=1P_UG_AL_1/0_Brenau_2

New Line.l(r:p1udm618-p1ulv4879) Units=km Length=0.019232400000000004 bus1=p1udm618.1.2 bus2=p1ulv4879.1.2 switch=n enabled=y phases=2 Linecode=1P_UG_AL_1/0_Brenau_2

New Line.l(r:p1udm618-p1udt166lv) Units=km Length=0.0190706 bus1=p1udt166lv.1.2 bus2=p1udm618.1.2 switch=n enabled=y phases=2 Linecode=1P_UG_AL_1/0_Brenau_2

New Line.l(r:p1udm619-p1ulv5431) Units=km Length=0.0192155 bus1=p1udm619.1.2 bus2=p1ulv5431.1.2 switch=n enabled=y phases=2 Linecode=1P_UG_AL_2/0_Converse_2

New Line.l(r:p1udm619-p1udt166lv) Units=km Length=0.0190623 bus1=p1udt166lv.1.2 bus2=p1udm619.1.2 switch=n enabled=y phases=2 Linecode=1P_UG_AL_2/0_Converse_2

New Line.l(r:p1udt167lv-p1ulv171) Units=km Length=0.023115800000000002 bus1=p1udt167lv.1.2 bus2=p1ulv171.1.2 switch=n enabled=y phases=2 Linecode=1P_UG_AL_1/0_Brenau_2

New Line.l(r:p1udt167lv-p1ulv11423) Units=km Length=0.0229069 bus1=p1udt167lv.1.2 bus2=p1ulv11423.1.2 switch=n enabled=y phases=2 Linecode=1P_UG_AL_1/0_Brenau_2

New Line.l(r:p1udm621-p1ulv184) Units=km Length=0.0126929 bus1=p1udm621.1.2 bus2=p1ulv184.1.2 switch=n enabled=y phases=2 Linecode=1P_UG_AL_1/0_Brenau_2

New Line.l(r:p1udm621-p1ulv9541) Units=km Length=0.0156446 bus1=p1udm621.1.2 bus2=p1ulv9541.1.2 switch=n enabled=y phases=2 Linecode=1P_UG_AL_1/0_Brenau_2

New Line.l(r:p1udm621-p1udt167lv) Units=km Length=0.0097817 bus1=p1udt167lv.1.2 bus2=p1udm621.1.2 switch=n enabled=y phases=2 Linecode=1P_UG_AL_4/0_Sweetbriar_2

New Line.l(r:p1udm624-p1ulv172) Units=km Length=0.0101944 bus1=p1udm624.1.2 bus2=p1ulv172.1.2 switch=n enabled=y phases=2 Linecode=1P_UG_AL_1/0_Brenau_2

New Line.l(r:p1udm624-p1udt168lv) Units=km Length=0.00966132 bus1=p1udt168lv.1.2 bus2=p1udm624.1.2 switch=n enabled=y phases=2 Linecode=1P_UG_AL_1/0_Brenau_2

New Line.l(r:p1udm625-p1ulv9393) Units=km Length=0.013137 bus1=p1udm625.1.2 bus2=p1ulv9393.1.2 switch=n enabled=y phases=2 Linecode=1P_UG_AL_1/0_Brenau_2

New Line.l(r:p1udm625-p1udt168lv) Units=km Length=0.0379433 bus1=p1udt168lv.1.2 bus2=p1udm625.1.2 switch=n enabled=y phases=2 Linecode=1P_UG_AL_1/0_Brenau_2

New Line.l(r:p1udm626-p1ulv173) Units=km Length=0.0150226 bus1=p1udm626.1.2 bus2=p1ulv173.1.2 switch=n enabled=y phases=2 Linecode=1P_OH_AL_2/0_Rucina_2

New Line.l(r:p1udm626-p1udt169lv) Units=km Length=0.0572815 bus1=p1udt169lv.1.2 bus2=p1udm626.1.2 switch=n enabled=y phases=2 Linecode=1P_OH_AL_4/0_Zuzara_2

New Line.l(r:p1udm627-p1ulv1173) Units=km Length=0.0224573 bus1=p1udm627.1.2 bus2=p1ulv1173.1.2 switch=n enabled=y phases=2 Linecode=1P_OH_AL_2/0_Rucina_2

New Line.l(r:p1udm627-p1udt169lv) Units=km Length=0.0195105 bus1=p1udt169lv.1.2 bus2=p1udm627.1.2 switch=n enabled=y phases=2 Linecode=1P_OH_AL_2/0_Rucina_2

New Line.l(r:p1udt170lv-p1ulv174) Units=km Length=0.023432200000000004 bus1=p1udt170lv.1.2 bus2=p1ulv174.1.2 switch=n enabled=y phases=2 Linecode=1P_OH_AL_2/0_Rucina_2

New Line.l(r:p1udt170lv-p1ulv6244) Units=km Length=0.0273332 bus1=p1udt170lv.1.2 bus2=p1ulv6244.1.2 switch=n enabled=y phases=2 Linecode=1P_OH_AL_4/0_Zuzara_2

New Line.l(r:p1udt170lv-p1ulv10619) Units=km Length=0.0242026 bus1=p1udt170lv.1.2 bus2=p1ulv10619.1.2 switch=n enabled=y phases=2 Linecode=1P_OH_AL_2/0_Rucina_2

New Line.l(r:p1udt171lv-p1ulv9282) Units=km Length=0.0268484 bus1=p1udt171lv.1.2 bus2=p1ulv9282.1.2 switch=n enabled=y phases=2 Linecode=1P_OH_AL_2/0_Rucina_2

New Line.l(r:p1udm631-p1ulv175) Units=km Length=0.026569400000000003 bus1=p1udm631.1.2 bus2=p1ulv175.1.2 switch=n enabled=y phases=2 Linecode=1P_OH_AL_2/0_Rucina_2

New Line.l(r:p1udm631-p1udt171lv) Units=km Length=0.0803103 bus1=p1udt171lv.1.2 bus2=p1udm631.1.2 switch=n enabled=y phases=2 Linecode=1P_OH_AL_4/0_Zuzara_2

New Line.l(r:p1udt172lv-p1ulv176) Units=km Length=0.0265596 bus1=p1udt172lv.1.2 bus2=p1ulv176.1.2 switch=n enabled=y phases=2 Linecode=1P_UG_AL_1/0_Brenau_2

New Line.l(r:p1udt172lv-p1ulv1178) Units=km Length=0.0232075 bus1=p1udt172lv.1.2 bus2=p1ulv1178.1.2 switch=n enabled=y phases=2 Linecode=1P_UG_AL_1/0_Brenau_2

New Line.l(r:p1udt172lv-p1ulv2444) Units=km Length=0.0253442 bus1=p1udt172lv.1.2 bus2=p1ulv2444.1.2 switch=n enabled=y phases=2 Linecode=1P_UG_AL_1/0_Brenau_2

New Line.l(r:p1udt172lv-p1ulv4395) Units=km Length=0.0225414 bus1=p1udt172lv.1.2 bus2=p1ulv4395.1.2 switch=n enabled=y phases=2 Linecode=1P_UG_AL_1/0_Brenau_2

New Line.l(r:p1udt172lv-p1ulv5552) Units=km Length=0.0208604 bus1=p1udt172lv.1.2 bus2=p1ulv5552.1.2 switch=n enabled=y phases=2 Linecode=1P_UG_AL_1/0_Brenau_2

New Line.l(r:p1udt172lv-p1ulv10621) Units=km Length=0.0223138 bus1=p1udt172lv.1.2 bus2=p1ulv10621.1.2 switch=n enabled=y phases=2 Linecode=1P_UG_AL_1/0_Brenau_2

New Line.l(r:p1udm637-p1ulv4988) Units=km Length=0.0130349 bus1=p1udm637.1.2 bus2=p1ulv4988.1.2 switch=n enabled=y phases=2 Linecode=1P_UG_AL_1/0_Brenau_2

New Line.l(r:p1udm638-p1ulv5225) Units=km Length=0.0168941 bus1=p1udm638.1.2 bus2=p1ulv5225.1.2 switch=n enabled=y phases=2 Linecode=1P_UG_AL_1/0_Brenau_2

New Line.l(r:p1udm637-p1udm638) Units=km Length=0.009780050000000002 bus1=p1udm637.1.2 bus2=p1udm638.1.2 switch=n enabled=y phases=2 Linecode=1P_UG_AL_1/0_Brenau_2

New Line.l(r:p1udm637-p1udt172lv) Units=km Length=0.0195701 bus1=p1udt172lv.1.2 bus2=p1udm637.1.2 switch=n enabled=y phases=2 Linecode=1P_UG_AL_2/0_Converse_2

New Line.l(r:p1udt173lv-p1ulv948) Units=km Length=0.0133507 bus1=p1udt173lv.1.2 bus2=p1ulv948.1.2 switch=n enabled=y phases=2 Linecode=1P_UG_AL_1/0_Brenau_2

New Line.l(r:p1udm641-p1ulv177) Units=km Length=0.0173023 bus1=p1udm641.1.2 bus2=p1ulv177.1.2 switch=n enabled=y phases=2 Linecode=1P_UG_AL_1/0_Brenau_2

New Line.l(r:p1udm644-p1ulv2591) Units=km Length=0.0141107 bus1=p1udm644.1.2 bus2=p1ulv2591.1.2 switch=n enabled=y phases=2 Linecode=1P_UG_AL_1/0_Brenau_2

New Line.l(r:p1udm641-p1udm644) Units=km Length=0.00978002 bus1=p1udm641.1.2 bus2=p1udm644.1.2 switch=n enabled=y phases=2 Linecode=1P_UG_AL_1/0_Brenau_2

New Line.l(r:p1udm641-p1udt173lv) Units=km Length=0.00979005 bus1=p1udt173lv.1.2 bus2=p1udm641.1.2 switch=n enabled=y phases=2 Linecode=1P_UG_AL_2/0_Converse_2

New Line.l(r:p1udm642-p1ulv843) Units=km Length=0.0147915 bus1=p1udm642.1.2 bus2=p1ulv843.1.2 switch=n enabled=y phases=2 Linecode=1P_UG_AL_1/0_Brenau_2

New Line.l(r:p1udm642-p1ulv7375) Units=km Length=0.0182488 bus1=p1udm642.1.2 bus2=p1ulv7375.1.2 switch=n enabled=y phases=2 Linecode=1P_UG_AL_2/0_Converse_2

New Line.l(r:p1udm642-p1udt173lv) Units=km Length=0.009780050000000002 bus1=p1udt173lv.1.2 bus2=p1udm642.1.2 switch=n enabled=y phases=2 Linecode=1P_UG_AL_4/0_Sweetbriar_2

New Line.l(r:p1udt175lv-p1ulv952) Units=km Length=0.0173741 bus1=p1udt175lv.1.2 bus2=p1ulv952.1.2 switch=n enabled=y phases=2 Linecode=1P_OH_AL_2/0_Rucina_2

New Line.l(r:p1udt175lv-p1ulv8009) Units=km Length=0.014098800000000002 bus1=p1udt175lv.1.2 bus2=p1ulv8009.1.2 switch=n enabled=y phases=2 Linecode=1P_OH_AL_2/0_Rucina_2

New Line.l(r:p1udm648-p1ulv179) Units=km Length=0.0187056 bus1=p1udm648.1.2 bus2=p1ulv179.1.2 switch=n enabled=y phases=2 Linecode=1P_OH_AL_2/0_Rucina_2

New Line.l(r:p1udm648-p1ulv292) Units=km Length=0.0155174 bus1=p1udm648.1.2 bus2=p1ulv292.1.2 switch=n enabled=y phases=2 Linecode=1P_OH_AL_2/0_Rucina_2

New Line.l(r:p1udm648-p1ulv4178) Units=km Length=0.0179542 bus1=p1udm648.1.2 bus2=p1ulv4178.1.2 switch=n enabled=y phases=2 Linecode=1P_OH_AL_2/0_Rucina_2

New Line.l(r:p1udm648-p1udt175lv) Units=km Length=0.019425 bus1=p1udt175lv.1.2 bus2=p1udm648.1.2 switch=n enabled=y phases=2 Linecode=1P_OH_AL_2/0_Rucina_2

New Line.l(r:p1udm651-p1ulv1183) Units=km Length=0.022769 bus1=p1udm651.1.2 bus2=p1ulv1183.1.2 switch=n enabled=y phases=2 Linecode=1P_OH_AL_2/0_Rucina_2

New Line.l(r:p1udm651-p1ulv11428) Units=km Length=0.0184489 bus1=p1udm651.1.2 bus2=p1ulv11428.1.2 switch=n enabled=y phases=2 Linecode=1P_OH_AL_2/0_Rucina_2

New Line.l(r:p1udm651-p1udt175lv) Units=km Length=0.0194248 bus1=p1udt175lv.1.2 bus2=p1udm651.1.2 switch=n enabled=y phases=2 Linecode=1P_OH_AL_2/0_Rucina_2

New Line.l(r:p1udt177lv-p1ulv181) Units=km Length=0.0181908 bus1=p1udt177lv.1.2 bus2=p1ulv181.1.2 switch=n enabled=y phases=2 Linecode=1P_OH_AL_2/0_Rucina_2

New Line.l(r:p1udt178lv-p1ulv10000) Units=km Length=0.0240304 bus1=p1udt178lv.1.2 bus2=p1ulv10000.1.2 switch=n enabled=y phases=2 Linecode=1P_OH_AL_2/0_Rucina_2

New Line.l(r:p1udm661-p1ulv182) Units=km Length=0.0232478 bus1=p1udm661.1.2 bus2=p1ulv182.1.2 switch=n enabled=y phases=2 Linecode=1P_OH_AL_2/0_Rucina_2

New Line.l(r:p1udm661-p1udt178lv) Units=km Length=0.0181828 bus1=p1udt178lv.1.2 bus2=p1udm661.1.2 switch=n enabled=y phases=2 Linecode=1P_OH_AL_2/0_Rucina_2

New Line.l(r:p1udm663-p1ulv183) Units=km Length=0.0171957 bus1=p1udm663.1.2 bus2=p1ulv183.1.2 switch=n enabled=y phases=2 Linecode=1P_OH_AL_2/0_Rucina_2

New Line.l(r:p1udm663-p1udt179lv) Units=km Length=0.0161726 bus1=p1udt179lv.1.2 bus2=p1udm663.1.2 switch=n enabled=y phases=2 Linecode=1P_OH_AL_2/0_Rucina_2

New Line.l(r:p1udm664-p1ulv4291) Units=km Length=0.0161456 bus1=p1udm664.1.2 bus2=p1ulv4291.1.2 switch=n enabled=y phases=2 Linecode=1P_OH_AL_2/0_Rucina_2

New Line.l(r:p1udm664-p1ulv5558) Units=km Length=0.0169351 bus1=p1udm664.1.2 bus2=p1ulv5558.1.2 switch=n enabled=y phases=2 Linecode=1P_OH_AL_2/0_Rucina_2

New Line.l(r:p1udm664-p1udt179lv) Units=km Length=0.0161624 bus1=p1udt179lv.1.2 bus2=p1udm664.1.2 switch=n enabled=y phases=2 Linecode=1P_OH_AL_2/0_Rucina_2

New Line.l(r:p1udt180lv-p1ulv12036) Units=km Length=0.0122615 bus1=p1udt180lv.1.2 bus2=p1ulv12036.1.2 switch=n enabled=y phases=2 Linecode=1P_OH_AL_2/0_Rucina_2

New Line.l(r:p1udm666-p1ulv185) Units=km Length=0.0127409 bus1=p1udm666.1.2 bus2=p1ulv185.1.2 switch=n enabled=y phases=2 Linecode=1P_OH_AL_2/0_Rucina_2

New Line.l(r:p1udm669-p1ulv6116) Units=km Length=0.0210303 bus1=p1udm669.1.2 bus2=p1ulv6116.1.2 switch=n enabled=y phases=2 Linecode=1P_OH_AL_2/0_Rucina_2

New Line.l(r:p1udm666-p1udm669) Units=km Length=0.014879 bus1=p1udm666.1.2 bus2=p1udm669.1.2 switch=n enabled=y phases=2 Linecode=1P_OH_AL_2/0_Rucina_2

New Line.l(r:p1udm666-p1udt180lv) Units=km Length=0.014879 bus1=p1udt180lv.1.2 bus2=p1udm666.1.2 switch=n enabled=y phases=2 Linecode=1P_OH_AL_2/0_Rucina_2

New Line.l(r:p1udm667-p1ulv612) Units=km Length=0.0220391 bus1=p1udm667.1.2 bus2=p1ulv612.1.2 switch=n enabled=y phases=2 Linecode=1P_OH_AL_2/0_Rucina_2

New Line.l(r:p1udm667-p1ulv5878) Units=km Length=0.01314 bus1=p1udm667.1.2 bus2=p1ulv5878.1.2 switch=n enabled=y phases=2 Linecode=1P_OH_AL_2/0_Rucina_2

New Line.l(r:p1udm670-p1ulv11318) Units=km Length=0.0216768 bus1=p1udm670.1.2 bus2=p1ulv11318.1.2 switch=n enabled=y phases=2 Linecode=1P_OH_AL_2/0_Rucina_2

New Line.l(r:p1udm667-p1udm670) Units=km Length=0.012576600000000002 bus1=p1udm667.1.2 bus2=p1udm670.1.2 switch=n enabled=y phases=2 Linecode=1P_OH_AL_2/0_Rucina_2

New Line.l(r:p1udm667-p1udt180lv) Units=km Length=0.0125864 bus1=p1udt180lv.1.2 bus2=p1udm667.1.2 switch=n enabled=y phases=2 Linecode=1P_OH_AL_2/0_Rucina_2

New Line.l(r:p1udt181lv-p1ulv5111) Units=km Length=0.0129197 bus1=p1udt181lv.1.2 bus2=p1ulv5111.1.2 switch=n enabled=y phases=2 Linecode=1P_UG_AL_1/0_Brenau_2

New Line.l(r:p1udm672-p1ulv186) Units=km Length=0.0263451 bus1=p1udm672.1.2 bus2=p1ulv186.1.2 switch=n enabled=y phases=2 Linecode=1P_UG_AL_1/0_Brenau_2

New Line.l(r:p1udm672-p1udt181lv) Units=km Length=0.00993524 bus1=p1udt181lv.1.2 bus2=p1udm672.1.2 switch=n enabled=y phases=2 Linecode=1P_UG_AL_1/0_Brenau_2

New Line.l(r:p1udt252lv-p1ulv5086) Units=km Length=0.0193473 bus1=p1udt252lv.1.2 bus2=p1ulv5086.1.2 switch=n enabled=y phases=2 Linecode=1P_OH_AL_2/0_Rucina_2

New Line.l(r:p1udm904-p1ulv264) Units=km Length=0.0166618 bus1=p1udm904.1.2 bus2=p1ulv264.1.2 switch=n enabled=y phases=2 Linecode=1P_OH_AL_2/0_Rucina_2_3

New Line.l(r:p1udm904-p1udt252lv) Units=km Length=0.018991 bus1=p1udt252lv.1.2 bus2=p1udm904.1.2 switch=n enabled=y phases=2 Linecode=1P_OH_AL_2/0_Rucina_2_3

New Line.l(r:p1udm906-p1ulv265) Units=km Length=0.00656805 bus1=p1udm906.1.2 bus2=p1ulv265.1.2 switch=n enabled=y phases=2 Linecode=1P_OH_AL_2/0_Rucina_2

New Line.l(r:p1udm906-p1udt253lv) Units=km Length=0.0199002 bus1=p1udt253lv.1.2 bus2=p1udm906.1.2 switch=n enabled=y phases=2 Linecode=1P_OH_AL_2/0_Rucina_2

New Line.l(r:p1udm907-p1ulv11894) Units=km Length=0.016541 bus1=p1udm907.1.2 bus2=p1ulv11894.1.2 switch=n enabled=y phases=2 Linecode=1P_OH_AL_2/0_Rucina_2

New Line.l(r:p1udm907-p1udt253lv) Units=km Length=0.0199002 bus1=p1udt253lv.1.2 bus2=p1udm907.1.2 switch=n enabled=y phases=2 Linecode=1P_OH_AL_2/0_Rucina_2

New Line.l(r:p1udt257lv-p1ulv269) Units=km Length=0.00750003 bus1=p1udt257lv.1.2 bus2=p1ulv269.1.2 switch=n enabled=y phases=2 Linecode=1P_UG_AL_1/0_Brenau_2

New Line.l(r:p1udm922-p1ulv6093) Units=km Length=0.021817200000000002 bus1=p1udm922.1.2 bus2=p1ulv6093.1.2 switch=n enabled=y phases=2 Linecode=1P_UG_AL_1/0_Brenau_2

New Line.l(r:p1udm921-p1ulv5420) Units=km Length=0.008063 bus1=p1udm921.1.2 bus2=p1ulv5420.1.2 switch=n enabled=y phases=2 Linecode=1P_UG_AL_1/0_Brenau_2

New Line.l(r:p1udm921-p1udm922) Units=km Length=0.00719017 bus1=p1udm922.1.2 bus2=p1udm921.1.2 switch=n enabled=y phases=2 Linecode=1P_UG_AL_1/0_Brenau_2

New Line.l(r:p1udm922-p1udt257lv) Units=km Length=0.00639226 bus1=p1udt257lv.1.2 bus2=p1udm922.1.2 switch=n enabled=y phases=2 Linecode=1P_UG_AL_1/0_Brenau_2

New Line.l(r:p1udm923-p1ulv11166) Units=km Length=0.0093215 bus1=p1udm923.1.2 bus2=p1ulv11166.1.2 switch=n enabled=y phases=2 Linecode=1P_UG_AL_1/0_Brenau_2

New Line.l(r:p1udm923-p1udt257lv) Units=km Length=0.0120648 bus1=p1udt257lv.1.2 bus2=p1udm923.1.2 switch=n enabled=y phases=2 Linecode=1P_UG_AL_1/0_Brenau_2

New Line.l(r:p1udt258lv-p1ulv271) Units=km Length=0.00968324 bus1=p1udt258lv.1.2 bus2=p1ulv271.1.2 switch=n enabled=y phases=2 Linecode=1P_OH_AL_2/0_Rucina_2

New Line.l(r:p1udt259lv-p1ulv5855) Units=km Length=0.0183015 bus1=p1udt259lv.1.2 bus2=p1ulv5855.1.2 switch=n enabled=y phases=2 Linecode=1P_OH_AL_2/0_Rucina_2

New Line.l(r:p1udt259lv-p1ulv10945) Units=km Length=0.0226088 bus1=p1udt259lv.1.2 bus2=p1ulv10945.1.2 switch=n enabled=y phases=2 Linecode=1P_OH_AL_2/0_Rucina_2

New Line.l(r:p1udm925-p1ulv272) Units=km Length=0.00316765 bus1=p1udm925.1.2 bus2=p1ulv272.1.2 switch=n enabled=y phases=2 Linecode=1P_OH_AL_4_Periwinkle_2

New Line.l(r:p1udm925-p1udt259lv) Units=km Length=0.0155492 bus1=p1udt259lv.1.2 bus2=p1udm925.1.2 switch=n enabled=y phases=2 Linecode=1P_OH_AL_2/0_Rucina_2

New Line.l(r:p1udm927-p1ulv8348) Units=km Length=0.00790247 bus1=p1udm927.1.2 bus2=p1ulv8348.1.2 switch=n enabled=y phases=2 Linecode=1P_OH_AL_2/0_Rucina_2

New Line.l(r:p1udm927-p1udt259lv) Units=km Length=0.031107400000000004 bus1=p1udt259lv.1.2 bus2=p1udm927.1.2 switch=n enabled=y phases=2 Linecode=1P_OH_AL_4/0_Zuzara_2

New Line.l(r:p1udt260lv-p1ulv7237) Units=km Length=0.00286044 bus1=p1udt260lv.1.2 bus2=p1ulv7237.1.2 switch=n enabled=y phases=2 Linecode=1P_UG_AL_1/0_Brenau_2

New Line.l(r:p1udm929-p1ulv274) Units=km Length=0.0062981 bus1=p1udm929.1.2 bus2=p1ulv274.1.2 switch=n enabled=y phases=2 Linecode=1P_UG_AL_1/0_Brenau_2

New Line.l(r:p1udm930-p1ulv698) Units=km Length=0.00414077 bus1=p1udm930.1.2 bus2=p1ulv698.1.2 switch=n enabled=y phases=2 Linecode=1P_UG_AL_1/0_Brenau_2

New Line.l(r:p1udm933-p1ulv6494) Units=km Length=0.012238500000000001 bus1=p1udm933.1.2 bus2=p1ulv6494.1.2 switch=n enabled=y phases=2 Linecode=1P_UG_AL_1/0_Brenau_2

New Line.l(r:p1udm936-p1ulv7356) Units=km Length=0.0113781 bus1=p1udm936.1.2 bus2=p1ulv7356.1.2 switch=n enabled=y phases=2 Linecode=1P_UG_AL_1/0_Brenau_2

New Line.l(r:p1udm933-p1udm936) Units=km Length=0.0317487 bus1=p1udm933.1.2 bus2=p1udm936.1.2 switch=n enabled=y phases=2 Linecode=1P_UG_AL_1/0_Brenau_2

...