external_data/tamu_texas_td/distribution_sample/p1uhs0_1247--p1udt1566/Transformers.dss
New Transformer.tr(r:p1udt18-p1udt18lv) phases=1 windings=3 %loadloss=0.798816 %Noloadloss=0.37 normhkva=55.0 wdg=1 conn=wye bus=p1udt18.3 Kv=7.2 kva=50.0 EmergHKVA=75.0 %r=0.266272 wdg=2 conn=wye bus=p1udt18lv.1.0 Kv=0.12 kva=50.0 EmergHKVA=75.0 %r=0.532544 wdg=3 conn=wye bus=p1udt18lv.0.2 Kv=0.12 kva=50.0 EmergHKVA=75.0 %r=0.532544 XHL=2.4 XLT=2.4 XHT=1.6

New Transformer.tr(r:p1udt19-p1udt19lv) phases=1 windings=3 %loadloss=0.798816 %Noloadloss=0.37 normhkva=55.0 wdg=1 conn=wye bus=p1udt19.1 Kv=7.2 kva=50.0 EmergHKVA=75.0 %r=0.266272 wdg=2 conn=wye bus=p1udt19lv.1.0 Kv=0.12 kva=50.0 EmergHKVA=75.0 %r=0.532544 wdg=3 conn=wye bus=p1udt19lv.0.2 Kv=0.12 kva=50.0 EmergHKVA=75.0 %r=0.532544 XHL=2.4 XLT=2.4 XHT=1.6

New Transformer.tr(r:p1udt20-p1udt20lv) phases=1 windings=3 %loadloss=0.49926 %Noloadloss=0.38 normhkva=82.5 wdg=1 conn=wye bus=p1udt20.2 Kv=7.2 kva=75.0 EmergHKVA=112.5 %r=0.16642 wdg=2 conn=wye bus=p1udt20lv.1.0 Kv=0.12 kva=75.0 EmergHKVA=112.5 %r=0.33284 wdg=3 conn=wye bus=p1udt20lv.0.2 Kv=0.12 kva=75.0 EmergHKVA=112.5 %r=0.33284 XHL=2.4 XLT=2.4 XHT=1.6

New Transformer.tr(r:p1udt21-p1udt21lv) phases=1 windings=3 %loadloss=0.798816 %Noloadloss=0.37 normhkva=55.0 wdg=1 conn=wye bus=p1udt21.2 Kv=7.2 kva=50.0 EmergHKVA=75.0 %r=0.266272 wdg=2 conn=wye bus=p1udt21lv.1.0 Kv=0.12 kva=50.0 EmergHKVA=75.0 %r=0.532544 wdg=3 conn=wye bus=p1udt21lv.0.2 Kv=0.12 kva=50.0 EmergHKVA=75.0 %r=0.532544 XHL=2.4 XLT=2.4 XHT=1.6

New Transformer.tr(r:p1udt22-p1udt22lv) phases=1 windings=3 %loadloss=0.798816 %Noloadloss=0.472 normhkva=27.5 wdg=1 conn=wye bus=p1udt22.1 Kv=7.2 kva=25.0 EmergHKVA=37.5 %r=0.266272 wdg=2 conn=wye bus=p1udt22lv.1.0 Kv=0.12 kva=25.0 EmergHKVA=37.5 %r=0.532544 wdg=3 conn=wye bus=p1udt22lv.0.2 Kv=0.12 kva=25.0 EmergHKVA=37.5 %r=0.532544 XHL=2.4 XLT=2.4 XHT=1.6

New Transformer.tr(r:p1udt23-p1udt23lv) phases=1 windings=3 %loadloss=0.798816 %Noloadloss=0.472 normhkva=27.5 wdg=1 conn=wye bus=p1udt23.2 Kv=7.2 kva=25.0 EmergHKVA=37.5 %r=0.266272 wdg=2 conn=wye bus=p1udt23lv.1.0 Kv=0.12 kva=25.0 EmergHKVA=37.5 %r=0.532544 wdg=3 conn=wye bus=p1udt23lv.0.2 Kv=0.12 kva=25.0 EmergHKVA=37.5 %r=0.532544 XHL=2.4 XLT=2.4 XHT=1.6

New Transformer.tr(r:p1udt24-p1udt24lv) phases=1 windings=3 %loadloss=0.49926 %Noloadloss=0.38 normhkva=82.5 wdg=1 conn=wye bus=p1udt24.3 Kv=7.2 kva=75.0 EmergHKVA=112.5 %r=0.16642 wdg=2 conn=wye bus=p1udt24lv.1.0 Kv=0.12 kva=75.0 EmergHKVA=112.5 %r=0.33284 wdg=3 conn=wye bus=p1udt24lv.0.2 Kv=0.12 kva=75.0 EmergHKVA=112.5 %r=0.33284 XHL=2.4 XLT=2.4 XHT=1.6

New Transformer.tr(r:p1udt25-p1udt25lv) phases=1 windings=3 %loadloss=0.798816 %Noloadloss=0.37 normhkva=55.0 wdg=1 conn=wye bus=p1udt25.3 Kv=7.2 kva=50.0 EmergHKVA=75.0 %r=0.266272 wdg=2 conn=wye bus=p1udt25lv.1.0 Kv=0.12 kva=50.0 EmergHKVA=75.0 %r=0.532544 wdg=3 conn=wye bus=p1udt25lv.0.2 Kv=0.12 kva=50.0 EmergHKVA=75.0 %r=0.532544 XHL=2.4 XLT=2.4 XHT=1.6

New Transformer.tr(r:p1udt26-p1udt26lv) phases=1 windings=3 %loadloss=0.49926 %Noloadloss=0.38 normhkva=82.5 wdg=1 conn=wye bus=p1udt26.3 Kv=7.2 kva=75.0 EmergHKVA=112.5 %r=0.16642 wdg=2 conn=wye bus=p1udt26lv.1.0 Kv=0.12 kva=75.0 EmergHKVA=112.5 %r=0.33284 wdg=3 conn=wye bus=p1udt26lv.0.2 Kv=0.12 kva=75.0 EmergHKVA=112.5 %r=0.33284 XHL=2.4 XLT=2.4 XHT=1.6

New Transformer.tr(r:p1udt27-p1udt27lv) phases=1 windings=3 %loadloss=0.798816 %Noloadloss=0.37 normhkva=55.0 wdg=1 conn=wye bus=p1udt27.3 Kv=7.2 kva=50.0 EmergHKVA=75.0 %r=0.266272 wdg=2 conn=wye bus=p1udt27lv.1.0 Kv=0.12 kva=50.0 EmergHKVA=75.0 %r=0.532544 wdg=3 conn=wye bus=p1udt27lv.0.2 Kv=0.12 kva=50.0 EmergHKVA=75.0 %r=0.532544 XHL=2.4 XLT=2.4 XHT=1.6

New Transformer.tr(r:p1udt28-p1udt28lv) phases=1 windings=3 %loadloss=0.49926 %Noloadloss=0.38 normhkva=82.5 wdg=1 conn=wye bus=p1udt28.1 Kv=7.2 kva=75.0 EmergHKVA=112.5 %r=0.16642 wdg=2 conn=wye bus=p1udt28lv.1.0 Kv=0.12 kva=75.0 EmergHKVA=112.5 %r=0.33284 wdg=3 conn=wye bus=p1udt28lv.0.2 Kv=0.12 kva=75.0 EmergHKVA=112.5 %r=0.33284 XHL=2.4 XLT=2.4 XHT=1.6

New Transformer.tr(r:p1udt29-p1udt29lv) phases=1 windings=3 %loadloss=0.798816 %Noloadloss=0.472 normhkva=27.5 wdg=1 conn=wye bus=p1udt29.2 Kv=7.2 kva=25.0 EmergHKVA=37.5 %r=0.266272 wdg=2 conn=wye bus=p1udt29lv.1.0 Kv=0.12 kva=25.0 EmergHKVA=37.5 %r=0.532544 wdg=3 conn=wye bus=p1udt29lv.0.2 Kv=0.12 kva=25.0 EmergHKVA=37.5 %r=0.532544 XHL=2.4 XLT=2.4 XHT=1.6

New Transformer.tr(r:p1udt30-p1udt30lv) phases=1 windings=3 %loadloss=0.798816 %Noloadloss=0.37 normhkva=55.0 wdg=1 conn=wye bus=p1udt30.3 Kv=7.2 kva=50.0 EmergHKVA=75.0 %r=0.266272 wdg=2 conn=wye bus=p1udt30lv.1.0 Kv=0.12 kva=50.0 EmergHKVA=75.0 %r=0.532544 wdg=3 conn=wye bus=p1udt30lv.0.2 Kv=0.12 kva=50.0 EmergHKVA=75.0 %r=0.532544 XHL=2.4 XLT=2.4 XHT=1.6

New Transformer.tr(r:p1udt31-p1udt31lv) phases=1 windings=3 %loadloss=0.798816 %Noloadloss=0.37 normhkva=55.0 wdg=1 conn=wye bus=p1udt31.1 Kv=7.2 kva=50.0 EmergHKVA=75.0 %r=0.266272 wdg=2 conn=wye bus=p1udt31lv.1.0 Kv=0.12 kva=50.0 EmergHKVA=75.0 %r=0.532544 wdg=3 conn=wye bus=p1udt31lv.0.2 Kv=0.12 kva=50.0 EmergHKVA=75.0 %r=0.532544 XHL=2.4 XLT=2.4 XHT=1.6

New Transformer.tr(r:p1udt32-p1udt32lv) phases=1 windings=3 %loadloss=0.798816 %Noloadloss=0.37 normhkva=55.0 wdg=1 conn=wye bus=p1udt32.3 Kv=7.2 kva=50.0 EmergHKVA=75.0 %r=0.266272 wdg=2 conn=wye bus=p1udt32lv.1.0 Kv=0.12 kva=50.0 EmergHKVA=75.0 %r=0.532544 wdg=3 conn=wye bus=p1udt32lv.0.2 Kv=0.12 kva=50.0 EmergHKVA=75.0 %r=0.532544 XHL=2.4 XLT=2.4 XHT=1.6

New Transformer.tr(r:p1udt33-p1udt33lv) phases=1 windings=3 %loadloss=0.798816 %Noloadloss=0.37 normhkva=55.0 wdg=1 conn=wye bus=p1udt33.2 Kv=7.2 kva=50.0 EmergHKVA=75.0 %r=0.266272 wdg=2 conn=wye bus=p1udt33lv.1.0 Kv=0.12 kva=50.0 EmergHKVA=75.0 %r=0.532544 wdg=3 conn=wye bus=p1udt33lv.0.2 Kv=0.12 kva=50.0 EmergHKVA=75.0 %r=0.532544 XHL=2.4 XLT=2.4 XHT=1.6

New Transformer.tr(r:p1udt34-p1udt34lv) phases=1 windings=3 %loadloss=0.798816 %Noloadloss=0.37 normhkva=55.0 wdg=1 conn=wye bus=p1udt34.1 Kv=7.2 kva=50.0 EmergHKVA=75.0 %r=0.266272 wdg=2 conn=wye bus=p1udt34lv.1.0 Kv=0.12 kva=50.0 EmergHKVA=75.0 %r=0.532544 wdg=3 conn=wye bus=p1udt34lv.0.2 Kv=0.12 kva=50.0 EmergHKVA=75.0 %r=0.532544 XHL=2.4 XLT=2.4 XHT=1.6

New Transformer.tr(r:p1udt35-p1udt35lv) phases=1 windings=3 %loadloss=0.798816 %Noloadloss=0.37 normhkva=55.0 wdg=1 conn=wye bus=p1udt35.3 Kv=7.2 kva=50.0 EmergHKVA=75.0 %r=0.266272 wdg=2 conn=wye bus=p1udt35lv.1.0 Kv=0.12 kva=50.0 EmergHKVA=75.0 %r=0.532544 wdg=3 conn=wye bus=p1udt35lv.0.2 Kv=0.12 kva=50.0 EmergHKVA=75.0 %r=0.532544 XHL=2.4 XLT=2.4 XHT=1.6

New Transformer.tr(r:p1udt36-p1udt36lv) phases=1 windings=3 %loadloss=0.798816 %Noloadloss=0.37 normhkva=55.0 wdg=1 conn=wye bus=p1udt36.3 Kv=7.2 kva=50.0 EmergHKVA=75.0 %r=0.266272 wdg=2 conn=wye bus=p1udt36lv.1.0 Kv=0.12 kva=50.0 EmergHKVA=75.0 %r=0.532544 wdg=3 conn=wye bus=p1udt36lv.0.2 Kv=0.12 kva=50.0 EmergHKVA=75.0 %r=0.532544 XHL=2.4 XLT=2.4 XHT=1.6

New Transformer.tr(r:p1udt37-p1udt37lv) phases=1 windings=3 %loadloss=0.798816 %Noloadloss=0.37 normhkva=55.0 wdg=1 conn=wye bus=p1udt37.1 Kv=7.2 kva=50.0 EmergHKVA=75.0 %r=0.266272 wdg=2 conn=wye bus=p1udt37lv.1.0 Kv=0.12 kva=50.0 EmergHKVA=75.0 %r=0.532544 wdg=3 conn=wye bus=p1udt37lv.0.2 Kv=0.12 kva=50.0 EmergHKVA=75.0 %r=0.532544 XHL=2.4 XLT=2.4 XHT=1.6

New Transformer.tr(r:p1udt38-p1udt38lv) phases=1 windings=3 %loadloss=0.798816 %Noloadloss=0.472 normhkva=27.5 wdg=1 conn=wye bus=p1udt38.1 Kv=7.2 kva=25.0 EmergHKVA=37.5 %r=0.266272 wdg=2 conn=wye bus=p1udt38lv.1.0 Kv=0.12 kva=25.0 EmergHKVA=37.5 %r=0.532544 wdg=3 conn=wye bus=p1udt38lv.0.2 Kv=0.12 kva=25.0 EmergHKVA=37.5 %r=0.532544 XHL=2.4 XLT=2.4 XHT=1.6

New Transformer.tr(r:p1udt39-p1udt39lv) phases=1 windings=3 %loadloss=0.798816 %Noloadloss=0.37 normhkva=55.0 wdg=1 conn=wye bus=p1udt39.2 Kv=7.2 kva=50.0 EmergHKVA=75.0 %r=0.266272 wdg=2 conn=wye bus=p1udt39lv.1.0 Kv=0.12 kva=50.0 EmergHKVA=75.0 %r=0.532544 wdg=3 conn=wye bus=p1udt39lv.0.2 Kv=0.12 kva=50.0 EmergHKVA=75.0 %r=0.532544 XHL=2.4 XLT=2.4 XHT=1.6

New Transformer.tr(r:p1udt44-p1udt44lv) phases=1 windings=3 %loadloss=0.49926 %Noloadloss=0.38 normhkva=82.5 wdg=1 conn=wye bus=p1udt44.1 Kv=7.2 kva=75.0 EmergHKVA=112.5 %r=0.16642 wdg=2 conn=wye bus=p1udt44lv.1.0 Kv=0.12 kva=75.0 EmergHKVA=112.5 %r=0.33284 wdg=3 conn=wye bus=p1udt44lv.0.2 Kv=0.12 kva=75.0 EmergHKVA=112.5 %r=0.33284 XHL=2.4 XLT=2.4 XHT=1.6

New Transformer.tr(r:p1udt45-p1udt45lv) phases=1 windings=3 %loadloss=0.49926 %Noloadloss=0.38 normhkva=82.5 wdg=1 conn=wye bus=p1udt45.3 Kv=7.2 kva=75.0 EmergHKVA=112.5 %r=0.16642 wdg=2 conn=wye bus=p1udt45lv.1.0 Kv=0.12 kva=75.0 EmergHKVA=112.5 %r=0.33284 wdg=3 conn=wye bus=p1udt45lv.0.2 Kv=0.12 kva=75.0 EmergHKVA=112.5 %r=0.33284 XHL=2.4 XLT=2.4 XHT=1.6

New Transformer.tr(r:p1udt46-p1udt46lv) phases=1 windings=3 %loadloss=0.798816 %Noloadloss=0.37 normhkva=55.0 wdg=1 conn=wye bus=p1udt46.2 Kv=7.2 kva=50.0 EmergHKVA=75.0 %r=0.266272 wdg=2 conn=wye bus=p1udt46lv.1.0 Kv=0.12 kva=50.0 EmergHKVA=75.0 %r=0.532544 wdg=3 conn=wye bus=p1udt46lv.0.2 Kv=0.12 kva=50.0 EmergHKVA=75.0 %r=0.532544 XHL=2.4 XLT=2.4 XHT=1.6

New Transformer.tr(r:p1udt47-p1udt47lv) phases=1 windings=3 %loadloss=0.798816 %Noloadloss=0.472 normhkva=27.5 wdg=1 conn=wye bus=p1udt47.3 Kv=7.2 kva=25.0 EmergHKVA=37.5 %r=0.266272 wdg=2 conn=wye bus=p1udt47lv.1.0 Kv=0.12 kva=25.0 EmergHKVA=37.5 %r=0.532544 wdg=3 conn=wye bus=p1udt47lv.0.2 Kv=0.12 kva=25.0 EmergHKVA=37.5 %r=0.532544 XHL=2.4 XLT=2.4 XHT=1.6

New Transformer.tr(r:p1udt48-p1udt48lv) phases=3 windings=2 %loadloss=1.74408 %Noloadloss=0.6 normhkva=82.5 wdg=1 conn=delta Kv=12.47 kva=75.0 EmergHKVA=112.5 %R=0.87204 bus=p1udt48 wdg=2 conn=wye Kv=0.48 kva=75.0 EmergHKVA=112.5 %R=0.87204 bus=p1udt48lv XHL=3.2400000000000007

New Transformer.tr(r:p1udt49-p1udt49lv) phases=3 windings=2 %loadloss=1.82396 %Noloadloss=0.325 normhkva=330.0 wdg=1 conn=delta Kv=12.47 kva=300.0 EmergHKVA=450.0 %R=0.91198 bus=p1udt49 wdg=2 conn=wye Kv=0.48 kva=300.0 EmergHKVA=450.0 %R=0.91198 bus=p1udt49lv XHL=3.7599999999999993

New Transformer.tr(r:p1udt152-p1udt152lv) phases=1 windings=3 %loadloss=0.798816 %Noloadloss=0.472 normhkva=27.5 wdg=1 conn=wye bus=p1udt152.3 Kv=7.2 kva=25.0 EmergHKVA=37.5 %r=0.266272 wdg=2 conn=wye bus=p1udt152lv.1.0 Kv=0.12 kva=25.0 EmergHKVA=37.5 %r=0.532544 wdg=3 conn=wye bus=p1udt152lv.0.2 Kv=0.12 kva=25.0 EmergHKVA=37.5 %r=0.532544 XHL=2.4 XLT=2.4 XHT=1.6

New Transformer.tr(r:p1udt153-p1udt153lv) phases=1 windings=3 %loadloss=0.798816 %Noloadloss=0.37 normhkva=55.0 wdg=1 conn=wye bus=p1udt153.1 Kv=7.2 kva=50.0 EmergHKVA=75.0 %r=0.266272 wdg=2 conn=wye bus=p1udt153lv.1.0 Kv=0.12 kva=50.0 EmergHKVA=75.0 %r=0.532544 wdg=3 conn=wye bus=p1udt153lv.0.2 Kv=0.12 kva=50.0 EmergHKVA=75.0 %r=0.532544 XHL=2.4 XLT=2.4 XHT=1.6

New Transformer.tr(r:p1udt155-p1udt155lv) phases=1 windings=3 %loadloss=0.798816 %Noloadloss=0.472 normhkva=27.5 wdg=1 conn=wye bus=p1udt155.1 Kv=7.2 kva=25.0 EmergHKVA=37.5 %r=0.266272 wdg=2 conn=wye bus=p1udt155lv.1.0 Kv=0.12 kva=25.0 EmergHKVA=37.5 %r=0.532544 wdg=3 conn=wye bus=p1udt155lv.0.2 Kv=0.12 kva=25.0 EmergHKVA=37.5 %r=0.532544 XHL=2.4 XLT=2.4 XHT=1.6

New Transformer.tr(r:p1udt157-p1udt157lv) phases=1 windings=3 %loadloss=0.49926 %Noloadloss=0.38 normhkva=82.5 wdg=1 conn=wye bus=p1udt157.2 Kv=7.2 kva=75.0 EmergHKVA=112.5 %r=0.16642 wdg=2 conn=wye bus=p1udt157lv.1.0 Kv=0.12 kva=75.0 EmergHKVA=112.5 %r=0.33284 wdg=3 conn=wye bus=p1udt157lv.0.2 Kv=0.12 kva=75.0 EmergHKVA=112.5 %r=0.33284 XHL=2.4 XLT=2.4 XHT=1.6

New Transformer.tr(r:p1udt159-p1udt159lv) phases=1 windings=3 %loadloss=0.798816 %Noloadloss=0.472 normhkva=27.5 wdg=1 conn=wye bus=p1udt159.2 Kv=7.2 kva=25.0 EmergHKVA=37.5 %r=0.266272 wdg=2 conn=wye bus=p1udt159lv.1.0 Kv=0.12 kva=25.0 EmergHKVA=37.5 %r=0.532544 wdg=3 conn=wye bus=p1udt159lv.0.2 Kv=0.12 kva=25.0 EmergHKVA=37.5 %r=0.532544 XHL=2.4 XLT=2.4 XHT=1.6

New Transformer.tr(r:p1udt160-p1udt160lv) phases=1 windings=3 %loadloss=0.49926 %Noloadloss=0.38 normhkva=82.5 wdg=1 conn=wye bus=p1udt160.2 Kv=7.2 kva=75.0 EmergHKVA=112.5 %r=0.16642 wdg=2 conn=wye bus=p1udt160lv.1.0 Kv=0.12 kva=75.0 EmergHKVA=112.5 %r=0.33284 wdg=3 conn=wye bus=p1udt160lv.0.2 Kv=0.12 kva=75.0 EmergHKVA=112.5 %r=0.33284 XHL=2.4 XLT=2.4 XHT=1.6

New Transformer.tr(r:p1udt161-p1udt161lv) phases=1 windings=3 %loadloss=0.798816 %Noloadloss=0.472 normhkva=27.5 wdg=1 conn=wye bus=p1udt161.1 Kv=7.2 kva=25.0 EmergHKVA=37.5 %r=0.266272 wdg=2 conn=wye bus=p1udt161lv.1.0 Kv=0.12 kva=25.0 EmergHKVA=37.5 %r=0.532544 wdg=3 conn=wye bus=p1udt161lv.0.2 Kv=0.12 kva=25.0 EmergHKVA=37.5 %r=0.532544 XHL=2.4 XLT=2.4 XHT=1.6

New Transformer.tr(r:p1udt162-p1udt162lv) phases=1 windings=3 %loadloss=0.49926 %Noloadloss=0.38 normhkva=82.5 wdg=1 conn=wye bus=p1udt162.2 Kv=7.2 kva=75.0 EmergHKVA=112.5 %r=0.16642 wdg=2 conn=wye bus=p1udt162lv.1.0 Kv=0.12 kva=75.0 EmergHKVA=112.5 %r=0.33284 wdg=3 conn=wye bus=p1udt162lv.0.2 Kv=0.12 kva=75.0 EmergHKVA=112.5 %r=0.33284 XHL=2.4 XLT=2.4 XHT=1.6

New Transformer.tr(r:p1udt163-p1udt163lv) phases=1 windings=3 %loadloss=0.49926 %Noloadloss=0.38 normhkva=82.5 wdg=1 conn=wye bus=p1udt163.2 Kv=7.2 kva=75.0 EmergHKVA=112.5 %r=0.16642 wdg=2 conn=wye bus=p1udt163lv.1.0 Kv=0.12 kva=75.0 EmergHKVA=112.5 %r=0.33284 wdg=3 conn=wye bus=p1udt163lv.0.2 Kv=0.12 kva=75.0 EmergHKVA=112.5 %r=0.33284 XHL=2.4 XLT=2.4 XHT=1.6

New Transformer.tr(r:p1udt164-p1udt164lv) phases=1 windings=3 %loadloss=0.49926 %Noloadloss=0.38 normhkva=82.5 wdg=1 conn=wye bus=p1udt164.2 Kv=7.2 kva=75.0 EmergHKVA=112.5 %r=0.16642 wdg=2 conn=wye bus=p1udt164lv.1.0 Kv=0.12 kva=75.0 EmergHKVA=112.5 %r=0.33284 wdg=3 conn=wye bus=p1udt164lv.0.2 Kv=0.12 kva=75.0 EmergHKVA=112.5 %r=0.33284 XHL=2.4 XLT=2.4 XHT=1.6

New Transformer.tr(r:p1udt165-p1udt165lv) phases=1 windings=3 %loadloss=0.49926 %Noloadloss=0.38 normhkva=82.5 wdg=1 conn=wye bus=p1udt165.2 Kv=7.2 kva=75.0 EmergHKVA=112.5 %r=0.16642 wdg=2 conn=wye bus=p1udt165lv.1.0 Kv=0.12 kva=75.0 EmergHKVA=112.5 %r=0.33284 wdg=3 conn=wye bus=p1udt165lv.0.2 Kv=0.12 kva=75.0 EmergHKVA=112.5 %r=0.33284 XHL=2.4 XLT=2.4 XHT=1.6

New Transformer.tr(r:p1udt166-p1udt166lv) phases=1 windings=3 %loadloss=0.798816 %Noloadloss=0.37 normhkva=55.0 wdg=1 conn=wye bus=p1udt166.2 Kv=7.2 kva=50.0 EmergHKVA=75.0 %r=0.266272 wdg=2 conn=wye bus=p1udt166lv.1.0 Kv=0.12 kva=50.0 EmergHKVA=75.0 %r=0.532544 wdg=3 conn=wye bus=p1udt166lv.0.2 Kv=0.12 kva=50.0 EmergHKVA=75.0 %r=0.532544 XHL=2.4 XLT=2.4 XHT=1.6

New Transformer.tr(r:p1udt167-p1udt167lv) phases=1 windings=3 %loadloss=0.798816 %Noloadloss=0.37 normhkva=55.0 wdg=1 conn=wye bus=p1udt167.1 Kv=7.2 kva=50.0 EmergHKVA=75.0 %r=0.266272 wdg=2 conn=wye bus=p1udt167lv.1.0 Kv=0.12 kva=50.0 EmergHKVA=75.0 %r=0.532544 wdg=3 conn=wye bus=p1udt167lv.0.2 Kv=0.12 kva=50.0 EmergHKVA=75.0 %r=0.532544 XHL=2.4 XLT=2.4 XHT=1.6

New Transformer.tr(r:p1udt168-p1udt168lv) phases=1 windings=3 %loadloss=0.798816 %Noloadloss=0.472 normhkva=27.5 wdg=1 conn=wye bus=p1udt168.3 Kv=7.2 kva=25.0 EmergHKVA=37.5 %r=0.266272 wdg=2 conn=wye bus=p1udt168lv.1.0 Kv=0.12 kva=25.0 EmergHKVA=37.5 %r=0.532544 wdg=3 conn=wye bus=p1udt168lv.0.2 Kv=0.12 kva=25.0 EmergHKVA=37.5 %r=0.532544 XHL=2.4 XLT=2.4 XHT=1.6

New Transformer.tr(r:p1udt169-p1udt169lv) phases=1 windings=3 %loadloss=0.798816 %Noloadloss=0.472 normhkva=27.5 wdg=1 conn=wye bus=p1udt169.3 Kv=7.2 kva=25.0 EmergHKVA=37.5 %r=0.266272 wdg=2 conn=wye bus=p1udt169lv.1.0 Kv=0.12 kva=25.0 EmergHKVA=37.5 %r=0.532544 wdg=3 conn=wye bus=p1udt169lv.0.2 Kv=0.12 kva=25.0 EmergHKVA=37.5 %r=0.532544 XHL=2.4 XLT=2.4 XHT=1.6

New Transformer.tr(r:p1udt170-p1udt170lv) phases=1 windings=3 %loadloss=0.798816 %Noloadloss=0.37 normhkva=55.0 wdg=1 conn=wye bus=p1udt170.3 Kv=7.2 kva=50.0 EmergHKVA=75.0 %r=0.266272 wdg=2 conn=wye bus=p1udt170lv.1.0 Kv=0.12 kva=50.0 EmergHKVA=75.0 %r=0.532544 wdg=3 conn=wye bus=p1udt170lv.0.2 Kv=0.12 kva=50.0 EmergHKVA=75.0 %r=0.532544 XHL=2.4 XLT=2.4 XHT=1.6

New Transformer.tr(r:p1udt171-p1udt171lv) phases=1 windings=3 %loadloss=0.798816 %Noloadloss=0.472 normhkva=27.5 wdg=1 conn=wye bus=p1udt171.1 Kv=7.2 kva=25.0 EmergHKVA=37.5 %r=0.266272 wdg=2 conn=wye bus=p1udt171lv.1.0 Kv=0.12 kva=25.0 EmergHKVA=37.5 %r=0.532544 wdg=3 conn=wye bus=p1udt171lv.0.2 Kv=0.12 kva=25.0 EmergHKVA=37.5 %r=0.532544 XHL=2.4 XLT=2.4 XHT=1.6

...